43B
  CCTOOLS-0506221825

 78 83  0  0  0  0  0  0  0  0999 V2000
   -9.4090    2.6850    0.1040 C   0  0  0  0  0
   -9.5590    1.1870    0.3770 C   0  0  0  0  0
   -8.5190    0.4280   -0.4050 C   0  0  0  0  0
   -8.6410   -0.2200   -2.0110 S   0  0  0  0  0
   -7.0110   -0.9200   -2.1070 C   0  0  0  0  0
   -6.4730   -0.5890   -0.8420 C   0  0  0  0  0
   -7.3120    0.0990   -0.0390 N   0  0  0  0  0
   -5.1540   -1.0170   -0.5870 C   0  0  0  0  0
   -4.4480   -1.7150   -1.5510 C   0  0  0  0  0
   -5.0210   -2.0200   -2.7900 C   0  0  0  0  0
   -6.3030   -1.6180   -3.0560 C   0  0  0  0  0
   -3.0600   -2.1510   -1.2640 C   0  0  0  0  0
   -2.0850   -2.0740   -2.2590 C   0  0  0  0  0
   -0.7970   -2.4790   -1.9930 C   0  0  0  0  0
   -0.4660   -2.9670   -0.7260 C   0  0  0  0  0
   -1.4440   -3.0500    0.2670 C   0  0  0  0  0
   -2.7310   -2.6380    0.0010 C   0  0  0  0  0
    0.9170   -3.4020   -0.4400 C   0  0  0  0  0
    1.2350   -3.8730    0.7820 N   0  0  0  0  0
    2.7850   -4.3600    1.1030 S   0  0  0  0  0
    3.8180   -2.9360    0.9940 C   0  0  0  0  0
    1.7670   -3.3340   -1.3070 O   0  0  0  0  0
    3.1610   -5.1940    0.0150 O   0  0  0  0  0
    2.7950   -4.7390    2.4720 O   0  0  0  0  0
    4.0490   -2.1630    2.1170 C   0  0  0  0  0
    4.8580   -1.0470    2.0350 C   0  0  0  0  0
    5.4360   -0.6980    0.8210 C   0  0  0  0  0
    5.2070   -1.4800   -0.3040 C   0  0  0  0  0
    4.3970   -2.5950   -0.2150 C   0  0  0  0  0
    5.1040   -0.2200    3.2380 N   0  3  0  0  0
    4.2060   -0.0270    4.0370 O   0  5  0  0  0
    6.2020    0.2710    3.4250 O   0  0  0  0  0
    6.2550    0.4300    0.7350 N   0  0  0  0  0
    6.9770    0.7180   -0.5070 C   0  0  0  0  0
    7.7940    2.0000   -0.3370 C   0  0  0  0  0
    8.6870    2.3560   -1.8750 S   0  0  0  0  0
    9.5200    3.8380   -1.4090 C   0  0  0  0  0
   10.3500    4.4850   -2.3160 C   0  0  0  0  0
   11.0010    5.6460   -1.9470 C   0  0  0  0  0
   10.8280    6.1640   -0.6770 C   0  0  0  0  0
   10.0030    5.5220    0.2290 C   0  0  0  0  0
    9.3440    4.3650   -0.1350 C   0  0  0  0  0
  -12.3560    4.8390    2.3220 C   0  0  0  0  0
  -11.1200    4.5820    2.8840 C   0  0  0  0  0
  -10.1660    3.8850    2.1660 C   0  0  0  0  0
  -10.4490    3.4450    0.8870 C   0  0  0  0  0
  -11.6830    3.7070    0.3230 C   0  0  0  0  0
  -12.6390    4.4000    1.0430 C   0  0  0  0  0
   -8.4140    3.0120    0.4080 H   0  0  0  0  0
   -9.5440    2.8760   -0.9600 H   0  0  0  0  0
  -10.5530    0.8600    0.0730 H   0  0  0  0  0
   -9.4230    0.9970    1.4420 H   0  0  0  0  0
   -4.6910   -0.7980    0.3640 H   0  0  0  0  0
   -4.4580   -2.5690   -3.5300 H   0  0  0  0  0
   -6.7560   -1.8480   -4.0100 H   0  0  0  0  0
   -2.3410   -1.6970   -3.2380 H   0  0  0  0  0
   -0.0420   -2.4190   -2.7630 H   0  0  0  0  0
   -1.1900   -3.4270    1.2470 H   0  0  0  0  0
   -3.4860   -2.6970    0.7710 H   0  0  0  0  0
    0.5570   -3.9260    1.4730 H   0  0  0  0  0
    3.5950   -2.4330    3.0590 H   0  0  0  0  0
    5.6590   -1.2150   -1.2480 H   0  0  0  0  0
    4.2150   -3.2000   -1.0910 H   0  0  0  0  0
    6.3470    1.0220    1.4970 H   0  0  0  0  0
    7.6450   -0.1110   -0.7400 H   0  0  0  0  0
    6.2620    0.8480   -1.3200 H   0  0  0  0  0
    7.1260    2.8290   -0.1040 H   0  0  0  0  0
    8.5090    1.8690    0.4760 H   0  0  0  0  0
   10.4860    4.0810   -3.3080 H   0  0  0  0  0
   11.6460    6.1500   -2.6520 H   0  0  0  0  0
   11.3380    7.0720   -0.3910 H   0  0  0  0  0
    9.8700    5.9290    1.2210 H   0  0  0  0  0
    8.7000    3.8640    0.5730 H   0  0  0  0  0
  -13.1020    5.3830    2.8830 H   0  0  0  0  0
  -10.8990    4.9260    3.8840 H   0  0  0  0  0
   -9.2000    3.6850    2.6050 H   0  0  0  0  0
  -11.9040    3.3630   -0.6770 H   0  0  0  0  0
  -13.6050    4.6000    0.6040 H   0  0  0  0  0
  1  2  1  0  0  0
  1 46  1  0  0  0
  1 49  1  0  0  0
  1 50  1  0  0  0
  2  3  1  0  0  0
  2 51  1  0  0  0
  2 52  1  0  0  0
  3  4  1  0  0  0
  3  7  2  0  0  0
  4  5  1  0  0  0
  5  6  2  0  0  0
  5 11  1  0  0  0
  6  7  1  0  0  0
  6  8  1  0  0  0
  8  9  2  0  0  0
  8 53  1  0  0  0
  9 10  1  0  0  0
  9 12  1  0  0  0
 10 11  2  0  0  0
 10 54  1  0  0  0
 11 55  1  0  0  0
 12 13  2  0  0  0
 12 17  1  0  0  0
 13 14  1  0  0  0
 13 56  1  0  0  0
 14 15  2  0  0  0
 14 57  1  0  0  0
 15 16  1  0  0  0
 15 18  1  0  0  0
 16 17  2  0  0  0
 16 58  1  0  0  0
 17 59  1  0  0  0
 18 19  1  0  0  0
 18 22  2  0  0  0
 19 20  1  0  0  0
 19 60  1  0  0  0
 20 21  1  0  0  0
 20 23  2  0  0  0
 20 24  2  0  0  0
 21 25  2  0  0  0
 21 29  1  0  0  0
 25 26  1  0  0  0
 25 61  1  0  0  0
 26 27  2  0  0  0
 26 30  1  0  0  0
 27 28  1  0  0  0
 27 33  1  0  0  0
 28 29  2  0  0  0
 28 62  1  0  0  0
 29 63  1  0  0  0
 30 31  1  0  0  0
 30 32  2  0  0  0
 33 34  1  0  0  0
 33 64  1  0  0  0
 34 35  1  0  0  0
 34 65  1  0  0  0
 34 66  1  0  0  0
 35 36  1  0  0  0
 35 67  1  0  0  0
 35 68  1  0  0  0
 36 37  1  0  0  0
 37 38  2  0  0  0
 37 42  1  0  0  0
 38 39  1  0  0  0
 38 69  1  0  0  0
 39 40  2  0  0  0
 39 70  1  0  0  0
 40 41  1  0  0  0
 40 71  1  0  0  0
 41 42  2  0  0  0
 41 72  1  0  0  0
 42 73  1  0  0  0
 43 44  2  0  0  0
 43 48  1  0  0  0
 43 74  1  0  0  0
 44 45  1  0  0  0
 44 75  1  0  0  0
 45 46  2  0  0  0
 45 76  1  0  0  0
 46 47  1  0  0  0
 47 48  2  0  0  0
 47 77  1  0  0  0
 48 78  1  0  0  0
M  CHG  1  30   1
M  CHG  1  31  -1
M  END
>  <2P2IDB_ID>
10101-0001

>  <Family>
BCL2

>  <UniProt>
P10415

>  <Class>
1

>  <Target>
BCL2

>  <SuperFamily>
BCL

>  <SuperFamily_ID>
101

>  <Target_ID>
10101

>  <Source>
Homo sapiens

>  <ExpData>
SOLUTION NMR

>  <PDBProtProt>
2XA0

>  <InstanceId>
1YSW_43B

>  <PDBProtLig>
1YSW

>  <Ligand>
43B

>  <ChainId>
A

>  <ResidueNumber>
1000

>  <Atoms>
78

>  <HeavyAtoms>
48

>  <MissingHeavyAtoms>
0

>  <MolecularWeight>
694.842

>  <ObservedFormula>
C36 N4 O5 S3

>  <Formula>
C36 H30 N4 O5 S3

>  <Type>
non-polymer

>  <Covalent>
na

>  <Deposition_Date>
2005-02-09

>  <Modified_Date>
2022-03-02

>  <2P2IDB_Date>
2022-05-01

>  <InChIKey>
KYLSTDPZEIQYFX-UHFFFAOYSA-N

>  <SMILES>
C(Cc1sc2c(n1)cc(cc2)c1ccc(cc1)C(=O)NS(=O)(=O)c1cc(c(cc1)NCCSc1ccccc1)[N+](=O)[O-])c1ccccc1

>  <SDF>
1YSW_43B_A_1000

$$$$
43B
  CCTOOLS-0506221825

 78 83  0  0  0  0  0  0  0  0999 V2000
   -9.4090    2.6850    0.1040 C   0  0  0  0  0
   -9.5590    1.1870    0.3770 C   0  0  0  0  0
   -8.5190    0.4280   -0.4050 C   0  0  0  0  0
   -8.6410   -0.2200   -2.0110 S   0  0  0  0  0
   -7.0110   -0.9200   -2.1070 C   0  0  0  0  0
   -6.4730   -0.5890   -0.8420 C   0  0  0  0  0
   -7.3120    0.0990   -0.0390 N   0  0  0  0  0
   -5.1540   -1.0170   -0.5870 C   0  0  0  0  0
   -4.4480   -1.7150   -1.5510 C   0  0  0  0  0
   -5.0210   -2.0200   -2.7900 C   0  0  0  0  0
   -6.3030   -1.6180   -3.0560 C   0  0  0  0  0
   -3.0600   -2.1510   -1.2640 C   0  0  0  0  0
   -2.0850   -2.0740   -2.2590 C   0  0  0  0  0
   -0.7970   -2.4790   -1.9930 C   0  0  0  0  0
   -0.4660   -2.9670   -0.7260 C   0  0  0  0  0
   -1.4440   -3.0500    0.2670 C   0  0  0  0  0
   -2.7310   -2.6380    0.0010 C   0  0  0  0  0
    0.9170   -3.4020   -0.4400 C   0  0  0  0  0
    1.2350   -3.8730    0.7820 N   0  0  0  0  0
    2.7850   -4.3600    1.1030 S   0  0  0  0  0
    3.8180   -2.9360    0.9940 C   0  0  0  0  0
    1.7670   -3.3340   -1.3070 O   0  0  0  0  0
    3.1610   -5.1940    0.0150 O   0  0  0  0  0
    2.7950   -4.7390    2.4720 O   0  0  0  0  0
    4.0490   -2.1630    2.1170 C   0  0  0  0  0
    4.8580   -1.0470    2.0350 C   0  0  0  0  0
    5.4360   -0.6980    0.8210 C   0  0  0  0  0
    5.2070   -1.4800   -0.3040 C   0  0  0  0  0
    4.3970   -2.5950   -0.2150 C   0  0  0  0  0
    5.1040   -0.2200    3.2380 N   0  3  0  0  0
    4.2060   -0.0270    4.0370 O   0  5  0  0  0
    6.2020    0.2710    3.4250 O   0  0  0  0  0
    6.2550    0.4300    0.7350 N   0  0  0  0  0
    6.9770    0.7180   -0.5070 C   0  0  0  0  0
    7.7940    2.0000   -0.3370 C   0  0  0  0  0
    8.6870    2.3560   -1.8750 S   0  0  0  0  0
    9.5200    3.8380   -1.4090 C   0  0  0  0  0
   10.3500    4.4850   -2.3160 C   0  0  0  0  0
   11.0010    5.6460   -1.9470 C   0  0  0  0  0
   10.8280    6.1640   -0.6770 C   0  0  0  0  0
   10.0030    5.5220    0.2290 C   0  0  0  0  0
    9.3440    4.3650   -0.1350 C   0  0  0  0  0
  -12.3560    4.8390    2.3220 C   0  0  0  0  0
  -11.1200    4.5820    2.8840 C   0  0  0  0  0
  -10.1660    3.8850    2.1660 C   0  0  0  0  0
  -10.4490    3.4450    0.8870 C   0  0  0  0  0
  -11.6830    3.7070    0.3230 C   0  0  0  0  0
  -12.6390    4.4000    1.0430 C   0  0  0  0  0
   -8.4140    3.0120    0.4080 H   0  0  0  0  0
   -9.5440    2.8760   -0.9600 H   0  0  0  0  0
  -10.5530    0.8600    0.0730 H   0  0  0  0  0
   -9.4230    0.9970    1.4420 H   0  0  0  0  0
   -4.6910   -0.7980    0.3640 H   0  0  0  0  0
   -4.4580   -2.5690   -3.5300 H   0  0  0  0  0
   -6.7560   -1.8480   -4.0100 H   0  0  0  0  0
   -2.3410   -1.6970   -3.2380 H   0  0  0  0  0
   -0.0420   -2.4190   -2.7630 H   0  0  0  0  0
   -1.1900   -3.4270    1.2470 H   0  0  0  0  0
   -3.4860   -2.6970    0.7710 H   0  0  0  0  0
    0.5570   -3.9260    1.4730 H   0  0  0  0  0
    3.5950   -2.4330    3.0590 H   0  0  0  0  0
    5.6590   -1.2150   -1.2480 H   0  0  0  0  0
    4.2150   -3.2000   -1.0910 H   0  0  0  0  0
    6.3470    1.0220    1.4970 H   0  0  0  0  0
    7.6450   -0.1110   -0.7400 H   0  0  0  0  0
    6.2620    0.8480   -1.3200 H   0  0  0  0  0
    7.1260    2.8290   -0.1040 H   0  0  0  0  0
    8.5090    1.8690    0.4760 H   0  0  0  0  0
   10.4860    4.0810   -3.3080 H   0  0  0  0  0
   11.6460    6.1500   -2.6520 H   0  0  0  0  0
   11.3380    7.0720   -0.3910 H   0  0  0  0  0
    9.8700    5.9290    1.2210 H   0  0  0  0  0
    8.7000    3.8640    0.5730 H   0  0  0  0  0
  -13.1020    5.3830    2.8830 H   0  0  0  0  0
  -10.8990    4.9260    3.8840 H   0  0  0  0  0
   -9.2000    3.6850    2.6050 H   0  0  0  0  0
  -11.9040    3.3630   -0.6770 H   0  0  0  0  0
  -13.6050    4.6000    0.6040 H   0  0  0  0  0
  1  2  1  0  0  0
  1 46  1  0  0  0
  1 49  1  0  0  0
  1 50  1  0  0  0
  2  3  1  0  0  0
  2 51  1  0  0  0
  2 52  1  0  0  0
  3  4  1  0  0  0
  3  7  2  0  0  0
  4  5  1  0  0  0
  5  6  2  0  0  0
  5 11  1  0  0  0
  6  7  1  0  0  0
  6  8  1  0  0  0
  8  9  2  0  0  0
  8 53  1  0  0  0
  9 10  1  0  0  0
  9 12  1  0  0  0
 10 11  2  0  0  0
 10 54  1  0  0  0
 11 55  1  0  0  0
 12 13  2  0  0  0
 12 17  1  0  0  0
 13 14  1  0  0  0
 13 56  1  0  0  0
 14 15  2  0  0  0
 14 57  1  0  0  0
 15 16  1  0  0  0
 15 18  1  0  0  0
 16 17  2  0  0  0
 16 58  1  0  0  0
 17 59  1  0  0  0
 18 19  1  0  0  0
 18 22  2  0  0  0
 19 20  1  0  0  0
 19 60  1  0  0  0
 20 21  1  0  0  0
 20 23  2  0  0  0
 20 24  2  0  0  0
 21 25  2  0  0  0
 21 29  1  0  0  0
 25 26  1  0  0  0
 25 61  1  0  0  0
 26 27  2  0  0  0
 26 30  1  0  0  0
 27 28  1  0  0  0
 27 33  1  0  0  0
 28 29  2  0  0  0
 28 62  1  0  0  0
 29 63  1  0  0  0
 30 31  1  0  0  0
 30 32  2  0  0  0
 33 34  1  0  0  0
 33 64  1  0  0  0
 34 35  1  0  0  0
 34 65  1  0  0  0
 34 66  1  0  0  0
 35 36  1  0  0  0
 35 67  1  0  0  0
 35 68  1  0  0  0
 36 37  1  0  0  0
 37 38  2  0  0  0
 37 42  1  0  0  0
 38 39  1  0  0  0
 38 69  1  0  0  0
 39 40  2  0  0  0
 39 70  1  0  0  0
 40 41  1  0  0  0
 40 71  1  0  0  0
 41 42  2  0  0  0
 41 72  1  0  0  0
 42 73  1  0  0  0
 43 44  2  0  0  0
 43 48  1  0  0  0
 43 74  1  0  0  0
 44 45  1  0  0  0
 44 75  1  0  0  0
 45 46  2  0  0  0
 45 76  1  0  0  0
 46 47  1  0  0  0
 47 48  2  0  0  0
 47 77  1  0  0  0
 48 78  1  0  0  0
M  CHG  1  30   1
M  CHG  1  31  -1
M  END
>  <2P2IDB_ID>
10101-0002

>  <Family>
BCL2

>  <UniProt>
P10415

>  <Class>
1

>  <Target>
BCL2

>  <SuperFamily>
BCL

>  <SuperFamily_ID>
101

>  <Target_ID>
10101

>  <Source>
Homo sapiens

>  <ExpData>
SOLUTION NMR

>  <PDBProtProt>
2XA0

>  <InstanceId>
2O21_43B

>  <PDBProtLig>
2O21

>  <Ligand>
43B

>  <ChainId>
A

>  <ResidueNumber>
1000

>  <Atoms>
78

>  <HeavyAtoms>
48

>  <MissingHeavyAtoms>
0

>  <MolecularWeight>
694.842

>  <ObservedFormula>
C36 N4 O5 S3

>  <Formula>
C36 H30 N4 O5 S3

>  <Type>
non-polymer

>  <Covalent>
na

>  <Deposition_Date>
2006-11-29

>  <Modified_Date>
2022-03-16

>  <2P2IDB_Date>
2022-05-01

>  <InChIKey>
KYLSTDPZEIQYFX-UHFFFAOYSA-N

>  <SMILES>
C(Cc1sc2c(n1)cc(cc2)c1ccc(cc1)C(=O)NS(=O)(=O)c1cc(c(cc1)NCCSc1ccccc1)[N+](=O)[O-])c1ccccc1

>  <SDF>
2O21_43B_A_1000

$$$$
LIU
  CCTOOLS-0506221802

 77 80  0  0  0  0  0  0  0  0999 V2000
   -0.0960   -0.6790    0.4220 C   0  0  0  0  0
    0.6870   -2.0080    0.4210 C   0  0  0  0  0
    0.2560   -2.8300   -0.8110 C   0  0  0  0  0
   -1.2590   -3.0140   -0.9160 C   0  0  0  0  0
   -1.9450   -1.7180   -0.8330 N   0  0  0  0  0
   -1.6100   -0.8670    0.3130 C   0  0  0  0  0
    0.4390   -2.7930    1.7230 C   0  0  0  0  0
    2.1940   -1.7070    0.3260 C   0  0  0  0  0
   -3.2200   -1.6270   -1.4060 C   0  0  0  0  0
   -3.4190   -1.8870   -2.7760 C   0  0  0  0  0
   -4.6890   -1.7950   -3.3470 C   0  0  0  0  0
   -5.7840   -1.4430   -2.5580 C   0  0  0  0  0
   -5.6090   -1.1820   -1.1990 C   0  0  0  0  0
   -4.3400   -1.2730   -0.6280 C   0  0  0  0  0
   -7.1070   -1.3490   -3.1530 C   0  0  0  0  0
   -7.4250   -2.0090   -4.1540 O   0  0  0  0  0
   -8.0430   -0.4500   -2.5180 N   0  0  0  0  0
   -9.6560   -0.1650   -3.0280 S   0  0  0  0  0
  -10.4960   -1.5270   -2.2770 C   0  0  0  0  0
  -10.6220   -2.7140   -2.9790 C   0  0  0  0  0
  -11.2850   -3.7890   -2.3860 C   0  0  0  0  0
  -11.8120   -3.6600   -1.1010 C   0  0  0  0  0
  -11.6750   -2.4570   -0.4080 C   0  0  0  0  0
  -11.0120   -1.3830   -1.0010 C   0  0  0  0  0
  -12.4880   -4.7340   -0.4780 N   0  0  0  0  0
  -12.0490   -5.3160    0.7500 C   0  0  0  0  0
  -10.5110   -5.2300    0.8410 C   0  0  0  0  0
   -9.7800   -5.9620    2.3430 S   0  0  0  0  0
   -8.0730   -5.6430    2.0250 C   0  0  0  0  0
   -7.6760   -4.9850    0.8500 C   0  0  0  0  0
   -6.3280   -4.7330    0.5990 C   0  0  0  0  0
   -5.3590   -5.1340    1.5190 C   0  0  0  0  0
   -5.7400   -5.7890    2.6910 C   0  0  0  0  0
   -7.0880   -6.0420    2.9420 C   0  0  0  0  0
  -11.4110   -5.0050   -3.1150 N   0  3  0  0  0
  -12.0060   -5.9700   -2.5820 O   0  0  0  0  0
  -10.9210   -5.0730   -4.2660 O   0  5  0  0  0
  -10.1540    1.0370   -2.3880 O   0  0  0  0  0
   -9.7360   -0.3220   -4.4670 O   0  0  0  0  0
  -12.4640   -6.7960    0.7450 C   0  0  0  0  0
  -12.7530   -4.6080    1.9150 C   0  0  0  0  0
    0.2390   -0.0680   -0.4280 H   0  0  0  0  0
    0.1340   -0.1040    1.3270 H   0  0  0  0  0
    0.7410   -3.8140   -0.7980 H   0  0  0  0  0
    0.6070   -2.3220   -1.7190 H   0  0  0  0  0
   -1.4850   -3.5040   -1.8710 H   0  0  0  0  0
   -1.6220   -3.6720   -0.1170 H   0  0  0  0  0
   -2.0090   -1.3160    1.2310 H   0  0  0  0  0
   -2.0790    0.1180    0.2010 H   0  0  0  0  0
    0.9910   -2.3430    2.5540 H   0  0  0  0  0
   -0.6260   -2.7920    1.9750 H   0  0  0  0  0
    0.7670   -3.8310    1.6130 H   0  0  0  0  0
    2.4900   -1.5580   -0.7170 H   0  0  0  0  0
    2.4410   -0.8010    0.8860 H   0  0  0  0  0
    2.7780   -2.5360    0.7350 H   0  0  0  0  0
   -2.5720   -2.1620   -3.3990 H   0  0  0  0  0
   -4.8130   -2.0010   -4.4070 H   0  0  0  0  0
   -6.4560   -0.9060   -0.5750 H   0  0  0  0  0
   -4.2150   -1.0690    0.4320 H   0  0  0  0  0
   -7.7150    0.0620   -1.6910 H   0  0  0  0  0
  -10.2100   -2.8100   -3.9810 H   0  0  0  0  0
  -12.0810   -2.3450    0.5940 H   0  0  0  0  0
  -10.9110   -0.4500   -0.4530 H   0  0  0  0  0
  -13.3050   -5.0810   -0.9400 H   0  0  0  0  0
  -10.0550   -5.7340   -0.0180 H   0  0  0  0  0
  -10.1880   -4.1820    0.8110 H   0  0  0  0  0
   -8.4170   -4.6640    0.1220 H   0  0  0  0  0
   -6.0310   -4.2230   -0.3130 H   0  0  0  0  0
   -4.3090   -4.9370    1.3230 H   0  0  0  0  0
   -4.9850   -6.1010    3.4070 H   0  0  0  0  0
   -7.3650   -6.5530    3.8610 H   0  0  0  0  0
  -12.1690   -7.2940    1.6750 H   0  0  0  0  0
  -13.5490   -6.9050    0.6340 H   0  0  0  0  0
  -11.9990   -7.3370   -0.0880 H   0  0  0  0  0
  -12.5800   -3.5260    1.9080 H   0  0  0  0  0
  -12.4120   -5.0000    2.8800 H   0  0  0  0  0
  -13.8390   -4.7500    1.8620 H   0  0  0  0  0
  1  6  1  0  0  0
  1 42  1  0  0  0
  1 43  1  0  0  0
  2  1  1  0  0  0
  2  8  1  0  0  0
  3  4  1  0  0  0
  3  2  1  0  0  0
  3 44  1  0  0  0
  3 45  1  0  0  0
  4  5  1  0  0  0
  4 46  1  0  0  0
  4 47  1  0  0  0
  5  6  1  0  0  0
  6 48  1  0  0  0
  6 49  1  0  0  0
  7  2  1  0  0  0
  7 50  1  0  0  0
  7 51  1  0  0  0
  7 52  1  0  0  0
  8 53  1  0  0  0
  8 54  1  0  0  0
  8 55  1  0  0  0
  9  5  1  0  0  0
 10  9  2  0  0  0
 10 56  1  0  0  0
 11 10  1  0  0  0
 11 57  1  0  0  0
 12 11  2  0  0  0
 12 13  1  0  0  0
 13 14  2  0  0  0
 13 58  1  0  0  0
 14  9  1  0  0  0
 14 59  1  0  0  0
 15 12  1  0  0  0
 16 15  2  0  0  0
 17 15  1  0  0  0
 17 60  1  0  0  0
 18 17  1  0  0  0
 18 38  2  0  0  0
 19 18  1  0  0  0
 20 19  2  0  0  0
 20 61  1  0  0  0
 21 20  1  0  0  0
 22 21  2  0  0  0
 22 23  1  0  0  0
 23 24  2  0  0  0
 23 62  1  0  0  0
 24 19  1  0  0  0
 24 63  1  0  0  0
 25 22  1  0  0  0
 25 64  1  0  0  0
 26 25  1  0  0  0
 26 41  1  0  0  0
 27 26  1  0  0  0
 27 28  1  0  0  0
 27 65  1  0  0  0
 27 66  1  0  0  0
 28 29  1  0  0  0
 29 30  2  0  0  0
 30 31  1  0  0  0
 30 67  1  0  0  0
 31 68  1  0  0  0
 32 31  2  0  0  0
 32 69  1  0  0  0
 33 32  1  0  0  0
 33 70  1  0  0  0
 34 33  2  0  0  0
 34 29  1  0  0  0
 34 71  1  0  0  0
 35 21  1  0  0  0
 36 35  2  0  0  0
 37 35  1  0  0  0
 39 18  2  0  0  0
 40 26  1  0  0  0
 40 72  1  0  0  0
 40 73  1  0  0  0
 40 74  1  0  0  0
 41 75  1  0  0  0
 41 76  1  0  0  0
 41 77  1  0  0  0
M  CHG  1  35   1
M  CHG  1  37  -1
M  END
>  <2P2IDB_ID>
10101-0003

>  <Family>
BCL2

>  <UniProt>
P10415

>  <Class>
1

>  <Target>
BCL2

>  <SuperFamily>
BCL

>  <SuperFamily_ID>
101

>  <Target_ID>
10101

>  <Source>
Homo sapiens

>  <ExpData>
SOLUTION NMR

>  <PDBProtProt>
2XA0

>  <InstanceId>
2O22_LIU

>  <PDBProtLig>
2O22

>  <Ligand>
LIU

>  <ChainId>
A

>  <ResidueNumber>
1000

>  <Atoms>
77

>  <HeavyAtoms>
41

>  <MissingHeavyAtoms>
0

>  <MolecularWeight>
596.761

>  <ObservedFormula>
C30 N4 O5 S2

>  <Formula>
C30 H36 N4 O5 S2

>  <Type>
non-polymer

>  <Covalent>
na

>  <Deposition_Date>
2006-11-29

>  <Modified_Date>
2011-07-13

>  <2P2IDB_Date>
2022-05-01

>  <InChIKey>
FQHHQKOASLDQEQ-UHFFFAOYSA-N

>  <SMILES>
C1C(CCN(C1)c1ccc(cc1)C(=O)NS(=O)(=O)c1cc(c(cc1)NC(CSc1ccccc1)(C)C)[N+](=O)[O-])(C)C

>  <SDF>
2O22_LIU_A_1000

$$$$
LI0
  CCTOOLS-0506221802

 88 92  0  0  0  0  0  0  0  0999 V2000
   -0.5510    0.8270    0.2220 C   0  0  0  0  0
   -1.4300    0.7400    1.4760 C   0  0  0  0  0
   -1.8650    2.1500    1.8960 C   0  0  0  0  0
   -2.5440    2.9110    0.7540 C   0  0  0  0  0
   -1.6970    2.9070   -0.4430 N   0  0  0  0  0
   -1.2370    1.5930   -0.9120 C   0  0  0  0  0
   -1.8560    3.9130   -1.4030 C   0  0  0  0  0
   -3.1090    4.5220   -1.6120 C   0  0  0  0  0
   -0.9270    5.3500   -3.1410 C   0  0  0  0  0
   -0.7680    4.3470   -2.1850 C   0  0  0  0  0
   -2.3420    6.9850   -4.3300 C   0  0  0  0  0
   -1.6160    7.0550   -5.3330 O   0  0  0  0  0
   -3.4010    7.9410   -4.1010 N   0  0  0  0  0
   -3.7940    9.2580   -5.1250 S   0  0  0  0  0
   -4.8110    8.4610   -6.3310 C   0  0  0  0  0
   -4.2240    7.9250   -7.4640 C   0  0  0  0  0
   -5.0270    7.2960   -8.4150 C   0  0  0  0  0
   -6.4060    7.2120   -8.2180 C   0  0  0  0  0
   -6.9810    7.7580   -7.0710 C   0  0  0  0  0
   -6.1770    8.3870   -6.1190 C   0  0  0  0  0
   -4.6460   10.1850   -4.4050 O   0  0  0  0  0
   -2.5910    9.7250   -5.7860 O   0  0  0  0  0
   -4.4150    6.7480   -9.5770 N   0  3  0  0  0
   -5.1370    6.1830  -10.4310 O   0  0  0  0  0
   -3.1730    6.8480   -9.7100 O   0  5  0  0  0
   -7.2410    6.5800   -9.1670 N   0  0  0  0  0
   -8.0510    5.4460   -8.8510 C   0  0  0  0  0
   -7.3510    4.5990   -7.7680 C   0  0  0  0  0
   -8.2410    3.0870   -7.2700 S   0  0  0  0  0
   -7.3830    1.2700   -5.3800 C   0  0  0  0  0
   -7.1120    2.4650   -6.0640 C   0  0  0  0  0
   -5.9260    3.1570   -5.7710 C   0  0  0  0  0
   -5.0350    2.6660   -4.8180 C   0  0  0  0  0
   -5.3170    1.4770   -4.1450 C   0  0  0  0  0
   -6.4920    0.7790   -4.4260 C   0  0  0  0  0
   -8.1970    4.6010  -10.1270 C   0  0  0  0  0
   -9.4400    5.9330   -8.4170 C   0  0  0  0  0
   -3.2680    5.5250   -2.5680 C   0  0  0  0  0
   -2.1770    5.9390   -3.3330 C   0  0  0  0  0
   -2.5870   -0.0380    1.1620 O   0  0  0  0  0
   -3.4460   -0.1580    2.2840 C   0  0  0  0  0
   -0.6840    0.0380    2.6100 C   0  0  0  0  0
    0.4400   -3.9470    1.5230 C   0  0  0  0  0
   -0.7910   -3.7120    2.1340 C   0  0  0  0  0
   -1.1580   -2.4140    2.4880 C   0  0  0  0  0
   -0.2890   -1.3620    2.2290 C   0  0  0  0  0
    0.9400   -1.5860    1.6210 C   0  0  0  0  0
    1.3060   -2.8840    1.2670 C   0  0  0  0  0
   -0.3070   -0.1800   -0.1390 H   0  0  0  0  0
    0.3960    1.3250    0.4700 H   0  0  0  0  0
   -0.9900    2.7190    2.2350 H   0  0  0  0  0
   -2.5660    2.0930    2.7370 H   0  0  0  0  0
   -3.5170    2.4640    0.5170 H   0  0  0  0  0
   -2.7310    3.9410    1.0830 H   0  0  0  0  0
   -0.5190    1.7110   -1.7330 H   0  0  0  0  0
   -2.0890    1.0230   -1.3030 H   0  0  0  0  0
   -3.9650    4.2060   -1.0230 H   0  0  0  0  0
   -0.0710    5.6650   -3.7320 H   0  0  0  0  0
    0.2090    3.8930   -2.0440 H   0  0  0  0  0
   -3.9660    7.8210   -3.2520 H   0  0  0  0  0
   -3.1480    7.9930   -7.6140 H   0  0  0  0  0
   -8.0540    7.6990   -6.9060 H   0  0  0  0  0
   -6.6360    8.8080   -5.2290 H   0  0  0  0  0
   -7.2460    6.9640  -10.0920 H   0  0  0  0  0
   -6.3590    4.2890   -8.1180 H   0  0  0  0  0
   -7.2030    5.1930   -6.8590 H   0  0  0  0  0
   -8.2940    0.7120   -5.5850 H   0  0  0  0  0
   -5.6890    4.0860   -6.2850 H   0  0  0  0  0
   -4.1200    3.2100   -4.5990 H   0  0  0  0  0
   -4.6230    1.0950   -3.4020 H   0  0  0  0  0
   -6.7110   -0.1460   -3.9020 H   0  0  0  0  0
   -8.8270    3.7230   -9.9500 H   0  0  0  0  0
   -8.6490    5.1830  -10.9390 H   0  0  0  0  0
   -7.2220    4.2500  -10.4850 H   0  0  0  0  0
   -9.3900    6.6290   -7.5720 H   0  0  0  0  0
  -10.0800    5.0930   -8.1270 H   0  0  0  0  0
   -9.9410    6.4690   -9.2320 H   0  0  0  0  0
   -4.2460    5.9780   -2.7090 H   0  0  0  0  0
   -2.8970    0.0980    3.1930 H   0  0  0  0  0
   -3.8220   -1.1820    2.3480 H   0  0  0  0  0
   -4.2870    0.5290    2.1620 H   0  0  0  0  0
   -1.3170    0.0180    3.5030 H   0  0  0  0  0
    0.2050    0.6190    2.8740 H   0  0  0  0  0
    0.7260   -4.9580    1.2470 H   0  0  0  0  0
   -1.4650   -4.5400    2.3330 H   0  0  0  0  0
   -2.1200   -2.2400    2.9630 H   0  0  0  0  0
    1.6210   -0.7630    1.4180 H   0  0  0  0  0
    2.2650   -3.0670    0.7910 H   0  0  0  0  0
  1  2  1  0  0  0
  1  6  1  0  0  0
  1 49  1  0  0  0
  1 50  1  0  0  0
  2 42  1  0  0  0
  2  3  1  0  0  0
  2 40  1  0  0  0
  3  4  1  0  0  0
  3 51  1  0  0  0
  3 52  1  0  0  0
  4  5  1  0  0  0
  4 53  1  0  0  0
  4 54  1  0  0  0
  5  7  1  0  0  0
  5  6  1  0  0  0
  6 55  1  0  0  0
  6 56  1  0  0  0
  7  8  1  0  0  0
  7 10  2  0  0  0
  8 38  2  0  0  0
  8 57  1  0  0  0
  9 39  2  0  0  0
  9 10  1  0  0  0
  9 58  1  0  0  0
 10 59  1  0  0  0
 11 13  1  0  0  0
 11 39  1  0  0  0
 11 12  2  0  0  0
 13 14  1  0  0  0
 13 60  1  0  0  0
 14 15  1  0  0  0
 14 22  2  0  0  0
 14 21  2  0  0  0
 15 16  2  0  0  0
 15 20  1  0  0  0
 16 17  1  0  0  0
 16 61  1  0  0  0
 17 23  1  0  0  0
 17 18  2  0  0  0
 18 26  1  0  0  0
 18 19  1  0  0  0
 19 20  2  0  0  0
 19 62  1  0  0  0
 20 63  1  0  0  0
 23 25  1  0  0  0
 23 24  2  0  0  0
 26 27  1  0  0  0
 26 64  1  0  0  0
 27 37  1  0  0  0
 27 36  1  0  0  0
 27 28  1  0  0  0
 28 29  1  0  0  0
 28 65  1  0  0  0
 28 66  1  0  0  0
 29 31  1  0  0  0
 30 31  2  0  0  0
 30 35  1  0  0  0
 30 67  1  0  0  0
 31 32  1  0  0  0
 32 33  2  0  0  0
 32 68  1  0  0  0
 33 34  1  0  0  0
 33 69  1  0  0  0
 34 35  2  0  0  0
 34 70  1  0  0  0
 35 71  1  0  0  0
 36 72  1  0  0  0
 36 73  1  0  0  0
 36 74  1  0  0  0
 37 75  1  0  0  0
 37 76  1  0  0  0
 37 77  1  0  0  0
 38 39  1  0  0  0
 38 78  1  0  0  0
 40 41  1  0  0  0
 41 79  1  0  0  0
 41 80  1  0  0  0
 41 81  1  0  0  0
 42 46  1  0  0  0
 42 82  1  0  0  0
 42 83  1  0  0  0
 43 44  1  0  0  0
 43 48  2  0  0  0
 43 84  1  0  0  0
 44 45  2  0  0  0
 44 85  1  0  0  0
 45 46  1  0  0  0
 45 86  1  0  0  0
 46 47  2  0  0  0
 47 48  1  0  0  0
 47 87  1  0  0  0
 48 88  1  0  0  0
M  CHG  1  23   1
M  CHG  1  25  -1
M  END
>  <2P2IDB_ID>
10101-0004

>  <Family>
BCL2

>  <UniProt>
P10415

>  <Class>
1

>  <Target>
BCL2

>  <SuperFamily>
BCL

>  <SuperFamily_ID>
101

>  <Target_ID>
10101

>  <Source>
Homo sapiens

>  <ExpData>
SOLUTION NMR

>  <PDBProtProt>
2XA0

>  <InstanceId>
2O2F_LI0

>  <PDBProtLig>
2O2F

>  <Ligand>
LI0

>  <ChainId>
A

>  <ResidueNumber>
1000

>  <Atoms>
88

>  <HeavyAtoms>
48

>  <MissingHeavyAtoms>
0

>  <MolecularWeight>
688.856

>  <ObservedFormula>
C36 N4 O6 S2

>  <Formula>
C36 H40 N4 O6 S2

>  <Type>
non-polymer

>  <Covalent>
na

>  <Deposition_Date>
2006-11-29

>  <Modified_Date>
2022-03-16

>  <2P2IDB_Date>
2022-05-01

>  <InChIKey>
REQAXYXBBHHBCA-UHFFFAOYSA-N

>  <SMILES>
C1C(CCN(C1)c1ccc(cc1)C(=O)NS(=O)(=O)c1cc(c(cc1)NC(CSc1ccccc1)(C)C)[N+](=O)[O-])(OC)Cc1ccccc1

>  <SDF>
2O2F_LI0_A_1000

$$$$
DRO
  CCTOOLS-0506221800

 72 77  0  0  1  0  0  0  0  0999 V2000
    3.1400    2.8120   -0.7140 C   0  0  0  0  0
    3.9440    3.8970   -1.0050 C   0  0  0  0  0
    5.3170    3.7930   -0.8850 C   0  0  0  0  0
    5.8910    2.6030   -0.4740 C   0  0  0  0  0
    5.0920    1.5150   -0.1820 C   0  0  0  0  0
    3.7120    1.6160   -0.3010 C   0  0  0  0  0
    2.9000    0.5150   -0.0050 N   0  0  0  0  0
    2.8020    0.0520    1.3120 C   0  0  0  0  0
    3.3510   -1.1760    1.6610 C   0  0  0  0  0
    3.2530   -1.6300    2.9610 C   0  0  0  0  0
    2.6080   -0.8650    3.9150 C   0  0  0  0  0
    2.0600    0.3570    3.5720 C   0  0  0  0  0
    2.1610    0.8200    2.2740 C   0  0  0  0  0
    2.2130   -0.0990   -0.9880 C   0  0  0  0  0
    2.3600    0.2520   -2.1430 O   0  0  0  0  0
    1.2810   -1.1960   -0.6630 C   0  0  0  0  0
    0.0730   -1.0720   -0.1500 N   0  0  0  0  0
    1.5150   -2.5810   -0.8490 C   0  0  0  0  0
    2.9410   -3.3280   -1.4990 CL  0  0  0  0  0
    0.3920   -3.2000   -0.4130 C   0  0  0  0  0
    0.1370   -4.6850   -0.3980 C   0  0  0  0  0
   -0.4630   -2.2290    0.0060 N   0  0  0  0  0
   -1.7390   -2.4570    0.5270 C   0  0  0  0  0
   -1.9270   -3.4080    1.5190 C   0  0  0  0  0
   -3.1890   -3.6320    2.0330 C   0  0  0  0  0
   -4.2750   -2.9110    1.5630 C   0  0  0  0  0
   -4.1060   -1.9610    0.5780 C   0  0  0  0  0
   -2.8340   -1.7200    0.0540 C   0  0  0  0  0
   -2.6460   -0.7010   -0.9970 C   0  0  0  0  0
   -1.9690   -0.9540   -1.9750 O   0  0  0  0  0
   -3.2240    0.5100   -0.8730 N   0  0  0  0  0
   -3.9380    0.8920    0.3500 C   0  0  0  0  0
   -3.5500    2.2950    0.7470 C   0  0  0  0  0
   -3.9320    2.7400    2.0050 C   0  0  0  0  0
   -3.6160    4.0170    2.4220 C   0  0  0  0  0
   -2.9140    4.8590    1.5790 C   0  0  0  0  0
   -2.5300    4.4160    0.3310 C   0  0  0  0  0
   -2.8420    3.1280   -0.0890 C   0  0  0  0  0
   -2.3660    2.7040   -1.4540 C   0  0  0  0  0
   -3.1580    1.5050   -1.9560 C   0  0  0  0  0
   -2.4560    0.8990   -3.1730 C   0  0  0  0  0
   -3.2610   -0.2110   -3.7010 N   0  0  0  0  0
    2.0660    2.8950   -0.8040 H   0  0  0  0  0
    3.4990    4.8270   -1.3260 H   0  0  0  0  0
    5.9440    4.6420   -1.1130 H   0  0  0  0  0
    6.9640    2.5250   -0.3820 H   0  0  0  0  0
    5.5410    0.5860    0.1390 H   0  0  0  0  0
    3.8550   -1.7740    0.9160 H   0  0  0  0  0
    1.7370    1.7770    2.0080 H   0  0  0  0  0
    3.6800   -2.5840    3.2330 H   0  0  0  0  0
    2.5320   -1.2230    4.9320 H   0  0  0  0  0
    1.5570    0.9520    4.3190 H   0  0  0  0  0
    0.3920   -5.0880    0.5820 H   0  0  0  0  0
   -0.9160   -4.8750   -0.6060 H   0  0  0  0  0
    0.7510   -5.1670   -1.1590 H   0  0  0  0  0
   -1.0860   -3.9750    1.8900 H   0  0  0  0  0
   -3.3310   -4.3740    2.8050 H   0  0  0  0  0
   -5.2580   -3.0940    1.9710 H   0  0  0  0  0
   -4.9550   -1.4020    0.2150 H   0  0  0  0  0
   -5.0120    0.8500    0.1710 H   0  0  0  0  0
   -3.6780    0.2030    1.1530 H   0  0  0  0  0
   -4.1650    1.8190   -2.2300 H   0  0  0  0  0
   -4.4820    2.0830    2.6630 H   0  0  0  0  0
   -3.9160    4.3570    3.4020 H   0  0  0  0  0
   -2.6670    5.8610    1.8970 H   0  0  0  0  0
   -1.9820    5.0750   -0.3260 H   0  0  0  0  0
   -2.4890    3.5340   -2.1500 H   0  0  0  0  0
   -1.3110    2.4370   -1.3980 H   0  0  0  0  0
   -2.3400    1.6620   -3.9430 H   0  0  0  0  0
   -1.4740    0.5280   -2.8790 H   0  0  0  0  0
   -2.7360   -0.7500   -4.3730 H   0  0  0  0  0
   -3.6010   -0.7980   -2.9540 H   0  0  0  0  0
  1  2  2  0  0  0
  1  6  1  0  0  0
  1 43  1  0  0  0
  2  3  1  0  0  0
  2 44  1  0  0  0
  3  4  2  0  0  0
  3 45  1  0  0  0
  4  5  1  0  0  0
  4 46  1  0  0  0
  5  6  2  0  0  0
  5 47  1  0  0  0
  6  7  1  0  0  0
  7  8  1  0  0  0
  7 14  1  0  0  0
  8  9  1  0  0  0
  8 13  2  0  0  0
  9 10  2  0  0  0
  9 48  1  0  0  0
 10 11  1  0  0  0
 10 50  1  0  0  0
 11 12  2  0  0  0
 11 51  1  0  0  0
 12 13  1  0  0  0
 12 52  1  0  0  0
 13 49  1  0  0  0
 14 15  2  0  0  0
 14 16  1  0  0  0
 16 17  2  0  0  0
 16 18  1  0  0  0
 17 22  1  0  0  0
 18 19  1  0  0  0
 18 20  2  0  0  0
 20 21  1  0  0  0
 20 22  1  0  0  0
 21 53  1  0  0  0
 21 54  1  0  0  0
 21 55  1  0  0  0
 22 23  1  0  0  0
 23 24  1  0  0  0
 23 28  2  0  0  0
 24 25  2  0  0  0
 24 56  1  0  0  0
 25 26  1  0  0  0
 25 57  1  0  0  0
 26 27  2  0  0  0
 26 58  1  0  0  0
 27 28  1  0  0  0
 27 59  1  0  0  0
 28 29  1  0  0  0
 29 30  2  0  0  0
 29 31  1  0  0  0
 31 32  1  0  0  0
 31 40  1  0  0  0
 32 33  1  0  0  0
 32 60  1  0  0  0
 32 61  1  0  0  0
 33 34  1  0  0  0
 33 38  2  0  0  0
 34 35  2  0  0  0
 34 63  1  0  0  0
 35 36  1  0  0  0
 35 64  1  0  0  0
 36 37  2  0  0  0
 36 65  1  0  0  0
 37 38  1  0  0  0
 37 66  1  0  0  0
 38 39  1  0  0  0
 39 40  1  0  0  0
 39 67  1  0  0  0
 39 68  1  0  0  0
 40 41  1  0  0  0
 40 62  1  0  0  0
 41 42  1  0  0  0
 41 69  1  0  0  0
 41 70  1  0  0  0
 42 71  1  0  0  0
 42 72  1  0  0  0
M  END
>  <2P2IDB_ID>
10101-0005

>  <Family>
BCL2

>  <UniProt>
P10415

>  <Class>
1

>  <Target>
BCL2

>  <SuperFamily>
BCL

>  <SuperFamily_ID>
101

>  <Target_ID>
10101

>  <Source>
HOMO SAPIENS

>  <ExpData>
X-RAY DIFFRACTION

>  <PDBProtProt>
2XA0

>  <InstanceId>
2W3L_DRO

>  <PDBProtLig>
2W3L

>  <Ligand>
DRO

>  <ChainId>
A

>  <ResidueNumber>
1166

>  <Atoms>
71

>  <HeavyAtoms>
41

>  <MissingHeavyAtoms>
0

>  <MolecularWeight>
576.087

>  <ObservedFormula>
C34 Cl N5 O2

>  <Formula>
C34 H30 Cl N5 O2

>  <Type>
non-polymer

>  <Covalent>
na

>  <Deposition_Date>
2008-11-13

>  <Modified_Date>
2017-06-28

>  <2P2IDB_Date>
2022-05-01

>  <InChIKey>
MLZCQGFPFQDFLC-NDEPHWFRSA-N

>  <SMILES>
c1ccccc1N(c1ccccc1)C(=O)c1nn(c(c1Cl)C)c1ccccc1C(=O)N1Cc2ccccc2C[C@H]1CN

>  <SDF>
2W3L_DRO_A_1166

$$$$
398
  CCTOOLS-0506221816

 94 99  0  0  0  0  0  0  0  0999 V2000
   -4.1090    2.2150    1.9650 O   0  0  0  0  0
   -2.9910    1.7400    1.9140 C   0  0  0  0  0
   -2.5710    0.8990    2.8790 N   0  0  0  0  0
   -1.2730    0.2230    2.7900 C   0  0  0  0  0
   -1.4280   -1.2270    3.1720 C   0  0  0  0  0
   -0.3640   -2.0820    2.9150 C   0  0  0  0  0
   -0.4430   -3.4180    3.2520 C   0  0  0  0  0
   -1.5890   -3.9080    3.8510 C   0  0  0  0  0
   -2.6470   -3.0600    4.1030 C   0  0  0  0  0
   -2.5730   -1.7160    3.7590 C   0  0  0  0  0
   -3.7780   -0.8570    4.0390 C   0  0  0  0  0
   -3.3950    0.6270    4.0690 C   0  0  0  0  0
   -2.0960    2.0810    0.7900 C   0  0  0  0  0
   -2.5640    2.0060   -0.5320 C   0  0  0  0  0
   -3.8760    1.6100   -0.7850 N   0  0  0  0  0
   -4.4420    0.5710   -0.2840 N   0  0  0  0  0
   -5.6820    0.4750   -0.7180 C   0  0  0  0  0
   -6.6540   -0.5810   -0.3690 C   0  0  0  0  0
   -7.5550   -0.3440    0.4130 O   0  0  0  0  0
   -6.5440   -1.8070   -0.9180 N   0  0  0  0  0
   -5.4050   -2.1220   -1.7840 C   0  0  0  0  0
   -4.3060   -2.7930   -0.9570 C   0  0  0  0  0
   -3.0720   -3.0150   -1.8340 C   0  0  0  0  0
   -2.0210   -3.8000   -1.0450 C   0  0  0  0  0
   -7.5630   -2.8250   -0.6500 C   0  0  0  0  0
   -8.6670   -2.7320   -1.7050 C   0  0  0  0  0
   -9.7310   -3.7950   -1.4240 C   0  0  0  0  0
  -10.8350   -3.7020   -2.4800 C   0  0  0  0  0
   -5.9090    1.5740   -1.5820 C   0  0  0  0  0
   -7.3700    1.9540   -2.4390 CL  0  0  0  0  0
   -4.7470    2.2700   -1.5950 C   0  0  0  0  0
   -4.4710    3.5370   -2.3630 C   0  0  0  0  0
   -1.7190    2.3260   -1.5860 C   0  0  0  0  0
   -0.4210    2.7180   -1.3410 C   0  0  0  0  0
    0.0550    2.7960   -0.0280 C   0  0  0  0  0
   -0.7860    2.4830    1.0380 C   0  0  0  0  0
    1.4470    3.2170    0.2280 C   0  0  0  0  0
    1.8610    3.2850    1.3700 O   0  0  0  0  0
    2.2590    3.5260   -0.8020 N   0  0  0  0  0
    3.8200    3.9970   -0.5140 S   0  0  0  0  0
    4.4150    4.2150   -1.7860 O   0  0  0  0  0
    3.7580    4.9950    0.4950 O   0  0  0  0  0
    4.6580    2.6200    0.1980 C   0  0  0  0  0
    5.2880    1.7270   -0.6130 C   0  0  0  0  0
    5.9580    0.6280   -0.0480 C   0  0  0  0  0
    6.6200   -0.3150   -0.8530 C   0  0  0  0  0
    7.2580   -1.3670   -0.2700 C   0  0  0  0  0
    8.2440   -2.7710   -1.4740 I   0  0  0  0  0
    7.2670   -1.5240    1.1150 C   0  0  0  0  0
    6.6360   -0.6310    1.9250 C   0  0  0  0  0
    5.9660    0.4680    1.3600 C   0  0  0  0  0
    5.3040    1.4110    2.1640 C   0  0  0  0  0
    4.6710    2.4660    1.5820 C   0  0  0  0  0
   -0.8980    0.2910    1.7690 H   0  0  0  0  0
   -0.5660    0.7030    3.4680 H   0  0  0  0  0
   -2.8230    0.8440    4.9710 H   0  0  0  0  0
   -4.2930    1.2430    4.0440 H   0  0  0  0  0
    0.5310   -1.6990    2.4480 H   0  0  0  0  0
    0.3870   -4.0780    3.0480 H   0  0  0  0  0
   -1.6540   -4.9510    4.1210 H   0  0  0  0  0
   -3.5410   -3.4450    4.5710 H   0  0  0  0  0
   -4.5240   -1.0210    3.2610 H   0  0  0  0  0
   -4.2010   -1.1360    5.0040 H   0  0  0  0  0
   -0.4220    2.5470    2.0520 H   0  0  0  0  0
   -2.0800    2.2680   -2.6020 H   0  0  0  0  0
   -5.7260   -2.7960   -2.5770 H   0  0  0  0  0
   -5.0170   -1.2020   -2.2240 H   0  0  0  0  0
   -7.1070   -3.8140   -0.6870 H   0  0  0  0  0
   -7.9900   -2.6580    0.3390 H   0  0  0  0  0
   -4.0430   -2.1540   -0.1150 H   0  0  0  0  0
   -4.6660   -3.7530   -0.5870 H   0  0  0  0  0
   -3.3540   -3.5780   -2.7230 H   0  0  0  0  0
   -2.6590   -2.0510   -2.1300 H   0  0  0  0  0
   -1.7390   -3.2370   -0.1560 H   0  0  0  0  0
   -2.4340   -4.7640   -0.7490 H   0  0  0  0  0
   -1.1420   -3.9580   -1.6700 H   0  0  0  0  0
   -9.1230   -1.7430   -1.6680 H   0  0  0  0  0
   -8.2390   -2.8980   -2.6940 H   0  0  0  0  0
   -9.2750   -4.7840   -1.4610 H   0  0  0  0  0
  -10.1580   -3.6290   -0.4350 H   0  0  0  0  0
  -11.2910   -2.7130   -2.4420 H   0  0  0  0  0
  -10.4070   -3.8680   -3.4680 H   0  0  0  0  0
  -11.5930   -4.4590   -2.2800 H   0  0  0  0  0
   -4.1600    3.2860   -3.3770 H   0  0  0  0  0
   -5.3760    4.1440   -2.4010 H   0  0  0  0  0
   -3.6780    4.0970   -1.8680 H   0  0  0  0  0
    0.2310    2.9660   -2.1650 H   0  0  0  0  0
    1.9290    3.4710   -1.7130 H   0  0  0  0  0
    5.2730    1.8610   -1.6840 H   0  0  0  0  0
    4.1670    3.1920    2.2030 H   0  0  0  0  0
    6.6220   -0.2070   -1.9270 H   0  0  0  0  0
    7.7810   -2.3680    1.5520 H   0  0  0  0  0
    6.6500   -0.7660    2.9970 H   0  0  0  0  0
    5.3020    1.3020    3.2390 H   0  0  0  0  0
  1  2  2  0  0  0
  2  3  1  0  0  0
  2 13  1  0  0  0
  3  4  1  0  0  0
  3 12  1  0  0  0
  4  5  1  0  0  0
  4 54  1  0  0  0
  4 55  1  0  0  0
  5  6  1  0  0  0
  5 10  2  0  0  0
  6  7  2  0  0  0
  6 58  1  0  0  0
  7  8  1  0  0  0
  7 59  1  0  0  0
  8  9  2  0  0  0
  8 60  1  0  0  0
  9 10  1  0  0  0
  9 61  1  0  0  0
 10 11  1  0  0  0
 11 12  1  0  0  0
 11 62  1  0  0  0
 11 63  1  0  0  0
 12 56  1  0  0  0
 12 57  1  0  0  0
 13 14  1  0  0  0
 13 36  2  0  0  0
 14 15  1  0  0  0
 14 33  2  0  0  0
 15 16  1  0  0  0
 15 31  1  0  0  0
 16 17  2  0  0  0
 17 18  1  0  0  0
 17 29  1  0  0  0
 18 19  2  0  0  0
 18 20  1  0  0  0
 20 21  1  0  0  0
 20 25  1  0  0  0
 21 22  1  0  0  0
 21 66  1  0  0  0
 21 67  1  0  0  0
 22 23  1  0  0  0
 22 70  1  0  0  0
 22 71  1  0  0  0
 23 24  1  0  0  0
 23 72  1  0  0  0
 23 73  1  0  0  0
 24 74  1  0  0  0
 24 75  1  0  0  0
 24 76  1  0  0  0
 25 26  1  0  0  0
 25 68  1  0  0  0
 25 69  1  0  0  0
 26 27  1  0  0  0
 26 77  1  0  0  0
 26 78  1  0  0  0
 27 28  1  0  0  0
 27 79  1  0  0  0
 27 80  1  0  0  0
 28 81  1  0  0  0
 28 82  1  0  0  0
 28 83  1  0  0  0
 29 30  1  0  0  0
 29 31  2  0  0  0
 31 32  1  0  0  0
 32 84  1  0  0  0
 32 85  1  0  0  0
 32 86  1  0  0  0
 33 34  1  0  0  0
 33 65  1  0  0  0
 34 35  2  0  0  0
 34 87  1  0  0  0
 35 36  1  0  0  0
 35 37  1  0  0  0
 36 64  1  0  0  0
 37 38  2  0  0  0
 37 39  1  0  0  0
 39 40  1  0  0  0
 39 88  1  0  0  0
 40 41  2  0  0  0
 40 42  2  0  0  0
 40 43  1  0  0  0
 43 44  1  0  0  0
 43 53  2  0  0  0
 44 45  2  0  0  0
 44 89  1  0  0  0
 45 46  1  0  0  0
 45 51  1  0  0  0
 46 47  2  0  0  0
 46 91  1  0  0  0
 47 48  1  0  0  0
 47 49  1  0  0  0
 49 50  2  0  0  0
 49 92  1  0  0  0
 50 51  1  0  0  0
 50 93  1  0  0  0
 51 52  2  0  0  0
 52 53  1  0  0  0
 52 94  1  0  0  0
 53 90  1  0  0  0
M  END
>  <2P2IDB_ID>
10101-0006

>  <Family>
BCL2

>  <UniProt>
P10415

>  <Class>
1

>  <Target>
BCL2

>  <SuperFamily>
BCL

>  <SuperFamily_ID>
101

>  <Target_ID>
10101

>  <Source>
HOMO SAPIENS

>  <ExpData>
X-RAY DIFFRACTION

>  <PDBProtProt>
2XA0

>  <InstanceId>
4AQ3_398

>  <PDBProtLig>
4AQ3

>  <Ligand>
398

>  <ChainId>
A

>  <ResidueNumber>
1163

>  <Atoms>
91

>  <HeavyAtoms>
50

>  <MissingHeavyAtoms>
0

>  <MolecularWeight>
866.207

>  <ObservedFormula>
C40 Cl I N5 O5 S

>  <Formula>
C40 H41 Cl I N5 O5 S

>  <Type>
non-polymer

>  <Covalent>
na

>  <Deposition_Date>
2012-04-12

>  <Modified_Date>
2012-11-21

>  <2P2IDB_Date>
2022-05-01

>  <InChIKey>
DKJBPPVETUSFTM-UHFFFAOYSA-N

>  <SMILES>
O=C(N1Cc2ccccc2CC1)c1c(n2nc(C(=O)N(CCCC)CCCC)c(Cl)c2C)ccc(c1)C(=O)NS(=O)(=O)c1cc2cc(I)ccc2cc1

>  <SDF>
4AQ3_398_A_1163

$$$$
1E9
  CCTOOLS-0506221806

103109  0  0  1  0  0  0  0  0999 V2000
    6.3330    2.7720   -0.0210 C   0  0  0  0  0
    7.1540    1.5350    0.3510 C   0  0  0  0  0
    4.9540    2.6840    0.6350 C   0  0  0  0  0
    8.5740    1.6810   -0.2010 C   0  0  0  0  0
    9.5470    0.2150    0.2400 S   0  0  0  0  0
   11.1240    0.5590   -0.4670 C   0  0  0  0  0
    4.1650    3.8710    0.2780 N   0  0  0  0  0
    3.8680    3.8920   -1.1610 C   0  0  0  0  0
    2.9310    3.9420    1.0710 C   0  0  0  0  0
   12.1610   -0.3570   -0.3360 C   0  0  0  0  0
   13.3950   -0.0840   -0.8910 C   0  0  0  0  0
   13.6000    1.0980   -1.5790 C   0  0  0  0  0
   12.5700    2.0120   -1.7110 C   0  0  0  0  0
   11.3320    1.7430   -1.1640 C   0  0  0  0  0
    6.5270    0.3420   -0.2230 N   0  0  0  0  0
    4.1630   -0.5690    2.4390 C   0  0  0  0  0
    3.4500   -1.5800    1.8200 C   0  0  0  0  0
    3.7570   -1.9540    0.5250 C   0  0  0  0  0
    4.7770   -1.3190   -0.1560 C   0  0  0  0  0
    5.4950   -0.3030    0.4630 C   0  0  0  0  0
    5.1840    0.0710    1.7640 C   0  0  0  0  0
    2.1480   -2.3940    2.6850 S   0  0  0  0  0
    1.9950   -3.6670    2.0740 O   0  0  0  0  0
    2.4190   -2.2240    4.0700 O   0  0  0  0  0
  -10.9710    3.3560    1.8870 C   0  0  0  0  0
  -10.8740    2.0370    1.4930 C   0  0  0  0  0
  -10.0430    1.6890    0.4310 C   0  0  0  0  0
   -9.3130    2.6760   -0.2290 C   0  0  0  0  0
   -9.4170    3.9920    0.1740 C   0  0  0  0  0
  -10.2490    4.3330    1.2250 C   0  0  0  0  0
   -9.9340    0.2720    0.0030 C   0  0  0  0  0
   -9.5570   -0.7080    0.9190 C   0  0  0  0  0
   -9.4580   -2.0240    0.5170 C   0  0  0  0  0
   -9.7310   -2.3720   -0.7950 C   0  0  0  0  0
  -10.1050   -1.4020   -1.7090 C   0  0  0  0  0
  -10.2140   -0.0840   -1.3150 C   0  0  0  0  0
   -8.4110    2.3070   -1.3780 C   0  0  0  0  0
   -7.2100    1.6370   -0.8630 N   0  0  0  0  0
   -6.3220    2.5940   -0.1880 C   0  0  0  0  0
   -5.1240    1.8460    0.4020 C   0  0  0  0  0
   -4.4130    1.1390   -0.6730 N   0  0  0  0  0
   -5.3010    0.1820   -1.3470 C   0  0  0  0  0
   -6.4990    0.9300   -1.9370 C   0  0  0  0  0
   -3.2740    0.5040   -0.1840 C   0  0  0  0  0
   -2.4490   -0.2220   -1.0440 C   0  0  0  0  0
   -1.8240   -0.0290    1.6590 C   0  0  0  0  0
   -2.9450    0.5920    1.1650 C   0  0  0  0  0
   -0.9860   -0.7680    0.8070 C   0  0  0  0  0
   -1.3380   -0.8360   -0.5500 C   0  0  0  0  0
   -0.0480   -1.8280   -1.2500 S   0  0  0  0  0
    0.8590   -2.1160    0.1250 N   0  0  0  0  0
    0.2500   -1.5080    1.0930 C   0  0  0  0  0
    0.7550   -1.5550    2.3750 N   0  0  0  0  0
   -0.6250   -3.0630   -1.6510 O   0  0  0  0  0
    0.7210   -0.9920   -2.1040 O   0  0  0  0  0
   -9.6040   -4.0290   -1.2950 CL  0  0  0  0  0
    5.1050   -1.7200   -1.5420 N   0  3  0  0  0
    5.0620   -2.8940   -1.8630 O   0  0  0  0  0
    5.4180   -0.8760   -2.3620 O   0  5  0  0  0
    6.8460    3.6670    0.3290 H   0  0  0  0  0
    6.2180    2.8190   -1.1040 H   0  0  0  0  0
    7.1940    1.4390    1.4360 H   0  0  0  0  0
    4.4410    1.7880    0.2840 H   0  0  0  0  0
    5.0690    2.6370    1.7180 H   0  0  0  0  0
    8.5340    1.7770   -1.2860 H   0  0  0  0  0
    9.0400    2.5690    0.2260 H   0  0  0  0  0
    3.2990    3.0010   -1.4270 H   0  0  0  0  0
    3.2830    4.7810   -1.3980 H   0  0  0  0  0
    4.8000    3.9090   -1.7250 H   0  0  0  0  0
    3.1840    3.9960    2.1310 H   0  0  0  0  0
    2.3670    4.8300    0.7870 H   0  0  0  0  0
    2.3280    3.0530    0.8860 H   0  0  0  0  0
   12.0020   -1.2810    0.2010 H   0  0  0  0  0
   14.2020   -0.7950   -0.7890 H   0  0  0  0  0
   14.5660    1.3090   -2.0120 H   0  0  0  0  0
   12.7330    2.9320   -2.2530 H   0  0  0  0  0
   10.5280    2.4570   -1.2680 H   0  0  0  0  0
    6.8290   -0.0010   -1.0790 H   0  0  0  0  0
    3.9180   -0.2760    3.4490 H   0  0  0  0  0
    3.1990   -2.7440    0.0450 H   0  0  0  0  0
    5.7410    0.8600    2.2470 H   0  0  0  0  0
  -11.6150    3.6270    2.7100 H   0  0  0  0  0
  -11.4420    1.2760    2.0080 H   0  0  0  0  0
   -8.8560    4.7590   -0.3390 H   0  0  0  0  0
  -10.3270    5.3640    1.5370 H   0  0  0  0  0
   -9.3440   -0.4370    1.9430 H   0  0  0  0  0
   -9.1660   -2.7840    1.2270 H   0  0  0  0  0
  -10.3170   -1.6780   -2.7320 H   0  0  0  0  0
  -10.5110    0.6710   -2.0280 H   0  0  0  0  0
   -8.9400    1.6350   -2.0540 H   0  0  0  0  0
   -8.1210    3.2090   -1.9170 H   0  0  0  0  0
   -5.9700    3.3330   -0.9080 H   0  0  0  0  0
   -6.8670    3.0960    0.6110 H   0  0  0  0  0
   -4.4490    2.5570    0.8780 H   0  0  0  0  0
   -5.4740    1.1260    1.1420 H   0  0  0  0  0
   -4.7560   -0.3190   -2.1470 H   0  0  0  0  0
   -5.6530   -0.5570   -0.6270 H   0  0  0  0  0
   -7.1740    0.2190   -2.4130 H   0  0  0  0  0
   -6.1490    1.6510   -2.6770 H   0  0  0  0  0
   -2.6890   -0.2960   -2.0940 H   0  0  0  0  0
   -1.5840    0.0510    2.7090 H   0  0  0  0  0
   -3.5800    1.1560    1.8330 H   0  0  0  0  0
    0.2930   -1.0970    3.0950 H   0  0  0  0  0
  1  3  1  0  0  0
  1 60  1  0  0  0
  1 61  1  0  0  0
  2 15  1  0  0  0
  2  1  1  0  0  0
  2 62  1  0  0  0
  3  7  1  0  0  0
  3 63  1  0  0  0
  3 64  1  0  0  0
  4  2  1  0  0  0
  4  5  1  0  0  0
  4 65  1  0  0  0
  4 66  1  0  0  0
  6  5  1  0  0  0
  6 10  2  0  0  0
  7  8  1  0  0  0
  8 67  1  0  0  0
  8 68  1  0  0  0
  8 69  1  0  0  0
  9  7  1  0  0  0
  9 70  1  0  0  0
  9 71  1  0  0  0
  9 72  1  0  0  0
 10 73  1  0  0  0
 11 10  1  0  0  0
 11 74  1  0  0  0
 12 11  2  0  0  0
 12 75  1  0  0  0
 13 14  2  0  0  0
 13 12  1  0  0  0
 13 76  1  0  0  0
 14  6  1  0  0  0
 14 77  1  0  0  0
 15 78  1  0  0  0
 16 17  2  0  0  0
 16 21  1  0  0  0
 16 79  1  0  0  0
 17 18  1  0  0  0
 18 19  2  0  0  0
 18 80  1  0  0  0
 19 57  1  0  0  0
 20 19  1  0  0  0
 20 15  1  0  0  0
 21 20  2  0  0  0
 21 81  1  0  0  0
 22 23  2  0  0  0
 22 17  1  0  0  0
 24 22  2  0  0  0
 25 26  2  0  0  0
 25 82  1  0  0  0
 26 83  1  0  0  0
 27 26  1  0  0  0
 27 31  1  0  0  0
 28 27  2  0  0  0
 29 30  2  0  0  0
 29 28  1  0  0  0
 29 84  1  0  0  0
 30 25  1  0  0  0
 30 85  1  0  0  0
 31 32  2  0  0  0
 31 36  1  0  0  0
 32 33  1  0  0  0
 32 86  1  0  0  0
 33 34  2  0  0  0
 33 87  1  0  0  0
 34 56  1  0  0  0
 35 34  1  0  0  0
 35 88  1  0  0  0
 36 35  2  0  0  0
 36 89  1  0  0  0
 37 28  1  0  0  0
 37 90  1  0  0  0
 37 91  1  0  0  0
 38 43  1  0  0  0
 38 37  1  0  0  0
 38 39  1  0  0  0
 39 92  1  0  0  0
 39 93  1  0  0  0
 40 39  1  0  0  0
 40 94  1  0  0  0
 40 95  1  0  0  0
 41 40  1  0  0  0
 42 43  1  0  0  0
 42 41  1  0  0  0
 42 96  1  0  0  0
 42 97  1  0  0  0
 43 98  1  0  0  0
 43 99  1  0  0  0
 44 41  1  0  0  0
 44 47  2  0  0  0
 45 49  2  0  0  0
 45 44  1  0  0  0
 45100  1  0  0  0
 46101  1  0  0  0
 47 46  1  0  0  0
 47102  1  0  0  0
 48 46  2  0  0  0
 49 48  1  0  0  0
 50 51  1  0  0  0
 50 49  1  0  0  0
 50 55  2  0  0  0
 51 52  2  0  0  0
 52 48  1  0  0  0
 52 53  1  0  0  0
 53 22  1  0  0  0
 53103  1  0  0  0
 54 50  2  0  0  0
 57 59  1  0  0  0
 57 58  2  0  0  0
M  CHG  1  57   1
M  CHG  1  59  -1
M  END
>  <2P2IDB_ID>
10101-0007

>  <Family>
BCL2

>  <UniProt>
P10415

>  <Class>
1

>  <Target>
BCL2

>  <SuperFamily>
BCL

>  <SuperFamily_ID>
101

>  <Target_ID>
10101

>  <Source>
Homo sapiens

>  <ExpData>
X-RAY DIFFRACTION

>  <PDBProtProt>
2XA0

>  <InstanceId>
4IEH_1E9

>  <PDBProtLig>
4IEH

>  <Ligand>
1E9

>  <ChainId>
A

>  <ResidueNumber>
201

>  <Atoms>
102

>  <HeavyAtoms>
58

>  <MissingHeavyAtoms>
0

>  <MolecularWeight>
874.490

>  <ObservedFormula>
C42 Cl N7 O6 S3

>  <Formula>
C42 H44 Cl N7 O6 S3

>  <Type>
non-polymer

>  <Covalent>
na

>  <Deposition_Date>
2012-12-13

>  <Modified_Date>
2017-07-26

>  <2P2IDB_Date>
2022-05-01

>  <InChIKey>
IXACTXFUQMBZJI-MGBGTMOVSA-N

>  <SMILES>
C([C@H](CSc1ccccc1)Nc1c(cc(cc1)S(=O)(=O)NC1=NS(=O)(=O)c2cc(N3CCN(Cc4c(cccc4)c4ccc(cc4)Cl)CC3)ccc12)[N+](=O)[O-])CN(C)C

>  <SDF>
4IEH_1E9_A_201

$$$$
1XJ
  CCTOOLS-0506221807

120126  0  0  1  0  0  0  0  0999 V2000
    8.2350    1.6590   -1.6170 C   0  0  0  0  0
   10.3390    0.7010   -0.9220 C   0  0  0  0  0
    1.2970   -3.0490    1.6400 C   0  0  0  0  0
    1.8360   -3.1780   -0.7160 C   0  0  0  0  0
    2.6060   -2.7270    1.9180 C   0  0  0  0  0
   -4.4670   -0.7600   -1.7760 C   0  0  0  0  0
   -3.6950   -1.8550   -2.1090 C   0  0  0  0  0
   10.5300    0.2110   -2.1970 C   0  0  0  0  0
    9.1870    1.4310   -0.6230 C   0  0  0  0  0
   -4.9890   -0.6430   -0.4940 C   0  0  0  0  0
  -10.0860    2.0570   -0.3480 C   0  0  0  0  0
   -3.4410   -2.8350   -1.1670 C   0  0  0  0  0
    9.5840    0.4450   -3.1800 C   0  0  0  0  0
    8.6920    1.1080    1.6960 C   0  0  0  0  0
    9.1040    3.4400    0.9520 C   0  0  0  0  0
  -12.2610    3.6360    0.3080 C   0  0  0  0  0
  -11.0050    4.2040    0.1970 C   0  0  0  0  0
  -12.4330    2.2810    0.0910 C   0  0  0  0  0
    3.1430   -2.8550   -0.4310 C   0  0  0  0  0
   -9.9170    3.4190   -0.1300 C   0  0  0  0  0
  -11.3490    1.4900   -0.2360 C   0  0  0  0  0
    8.4370    1.1630   -2.8880 C   0  0  0  0  0
   -3.9590   -2.7230    0.1100 C   0  0  0  0  0
    0.9010   -3.2770    0.3190 C   0  0  0  0  0
    3.5350   -2.6280    0.8860 C   0  0  0  0  0
   -4.7370   -1.6330    0.4470 C   0  0  0  0  0
    8.9770    1.9590    0.7410 C   0  0  0  0  0
   -0.5010   -3.6230    0.0170 C   0  0  0  0  0
    8.4450    1.5030    3.1230 C   0  0  0  0  0
    8.4520    3.8410    2.2770 C   0  0  0  0  0
    4.9390   -1.0310    1.9030 C   0  0  0  0  0
    5.6620   -2.2510   -0.0580 C   0  0  0  0  0
    6.3990   -0.7480    2.2660 C   0  0  0  0  0
    7.1220   -1.9690    0.3050 C   0  0  0  0  0
   -2.7040    3.8110   -2.6630 C   0  0  0  0  0
   -1.2040    2.0820   -1.8760 C   0  0  0  0  0
   -1.5540    4.8190   -2.6020 C   0  0  0  0  0
   -0.0690    3.1080   -1.8230 C   0  0  0  0  0
    8.9790    2.9130    3.3790 C   0  0  0  0  0
   10.5090    2.8960    3.3530 C   0  0  0  0  0
    8.4940    3.4080    4.7430 C   0  0  0  0  0
    8.6010   -0.3540    1.3390 C   0  0  0  0  0
   -4.8720    2.5080   -1.1600 C   0  0  0  0  0
   -3.5990    1.8070   -1.6390 C   0  0  0  0  0
   -7.3280    2.2370   -0.7890 C   0  0  0  0  0
   -6.0310    1.5090   -1.1470 C   0  0  0  0  0
   -4.5700   -0.0330    2.7720 C   0  0  0  0  0
    4.8560   -2.3020    1.1700 N   0  0  0  0  0
   -5.7650    0.4670   -0.1520 N   0  0  0  0  0
   -0.8810   -3.8430   -1.2570 N   0  0  0  0  0
    7.2050   -0.6980    1.0380 N   0  0  0  0  0
   -2.4870    2.7660   -1.6520 N   0  0  0  0  0
   -1.3130   -3.7100    0.9170 O   0  0  0  0  0
   -6.7780   -1.2300    1.8720 O   0  0  0  0  0
   -4.9620   -2.6720    2.7340 O   0  0  0  0  0
   -2.8150   -5.2690   -0.6950 O   0  0  0  0  0
   -2.5400   -4.3650   -3.0080 O   0  0  0  0  0
   -0.3130    4.1330   -2.7910 O   0  0  0  0  0
   -4.8640    1.0890    1.9890 F   0  0  0  0  0
   -3.1870   -0.2430    2.7850 F   0  0  0  0  0
   -5.0220    0.1790    4.0790 F   0  0  0  0  0
   -8.7010    1.0530   -0.7730 S   0  0  0  0  0
   -5.3960   -1.4900    2.0750 S   0  0  0  0  0
   -2.4550   -4.2320   -1.5960 S   0  0  0  0  0
    9.8310   -0.1760   -4.7830 CL  0  0  0  0  0
    7.3400    2.2190   -1.3900 H   0  0  0  0  0
   11.0770    0.5180   -0.1550 H   0  0  0  0  0
    0.5780   -3.1290    2.4410 H   0  0  0  0  0
    1.5330   -3.3540   -1.7370 H   0  0  0  0  0
    2.9130   -2.5500    2.9380 H   0  0  0  0  0
   -4.6610    0.0080   -2.5110 H   0  0  0  0  0
   -3.2890   -1.9460   -3.1060 H   0  0  0  0  0
   11.4190   -0.3570   -2.4280 H   0  0  0  0  0
   10.1590    3.7140    0.9710 H   0  0  0  0  0
    8.6090    3.9650    0.1350 H   0  0  0  0  0
  -13.1100    4.2520    0.5650 H   0  0  0  0  0
  -10.8750    5.2630    0.3670 H   0  0  0  0  0
  -13.4150    1.8410    0.1790 H   0  0  0  0  0
    3.8660   -2.7770   -1.2300 H   0  0  0  0  0
   -8.9360    3.8630   -0.2150 H   0  0  0  0  0
  -11.4840    0.4320   -0.4050 H   0  0  0  0  0
    7.6990    1.3360   -3.6580 H   0  0  0  0  0
   -3.7590   -3.4910    0.8420 H   0  0  0  0  0
    7.3740    1.4800    3.3230 H   0  0  0  0  0
    8.9490    0.7990    3.7850 H   0  0  0  0  0
    8.7090    4.8740    2.5140 H   0  0  0  0  0
    7.3700    3.7420    2.1980 H   0  0  0  0  0
    4.3440   -1.0980    2.8150 H   0  0  0  0  0
    4.5570   -0.2240    1.2780 H   0  0  0  0  0
    5.2880   -1.4590   -0.7060 H   0  0  0  0  0
    5.5950   -3.2080   -0.5760 H   0  0  0  0  0
    6.4660    0.2080    2.7850 H   0  0  0  0  0
    6.7720   -1.5410    2.9140 H   0  0  0  0  0
    7.5040   -2.7760    0.9310 H   0  0  0  0  0
    7.7170   -1.9020   -0.6060 H   0  0  0  0  0
   -3.6460    4.3210   -2.4630 H   0  0  0  0  0
   -2.7380    3.3580   -3.6540 H   0  0  0  0  0
   -1.2140    1.6010   -2.8540 H   0  0  0  0  0
   -1.0530    1.3310   -1.1020 H   0  0  0  0  0
   -1.6800    5.5640   -3.3880 H   0  0  0  0  0
   -1.5530    5.3120   -1.6300 H   0  0  0  0  0
   -0.0250    3.5510   -0.8280 H   0  0  0  0  0
    0.8770    2.6160   -2.0450 H   0  0  0  0  0
   10.8520    2.5510    2.3780 H   0  0  0  0  0
   10.8870    3.9020    3.5360 H   0  0  0  0  0
   10.8780    2.2230    4.1270 H   0  0  0  0  0
    8.8550    2.7370    5.5220 H   0  0  0  0  0
    8.8760    4.4120    4.9230 H   0  0  0  0  0
    7.4040    3.4250    4.7560 H   0  0  0  0  0
    9.2210   -0.5530    0.4650 H   0  0  0  0  0
    8.9510   -0.9550    2.1780 H   0  0  0  0  0
   -4.7160    2.8970   -0.1540 H   0  0  0  0  0
   -5.1090    3.3310   -1.8350 H   0  0  0  0  0
   -3.3620    0.9840   -0.9650 H   0  0  0  0  0
   -3.7550    1.4180   -2.6450 H   0  0  0  0  0
   -7.2290    2.6920    0.1970 H   0  0  0  0  0
   -7.5250    3.0130   -1.5290 H   0  0  0  0  0
   -6.1300    1.0540   -2.1320 H   0  0  0  0  0
   -6.1290    0.5470    0.7430 H   0  0  0  0  0
   -0.2330   -3.7740   -1.9760 H   0  0  0  0  0
  1 22  1  0  0  0
  1 66  1  0  0  0
  2  8  2  0  0  0
  2 67  1  0  0  0
  3 24  2  0  0  0
  3  5  1  0  0  0
  3 68  1  0  0  0
  4 19  2  0  0  0
  4 69  1  0  0  0
  5 25  2  0  0  0
  5 70  1  0  0  0
  6 10  1  0  0  0
  6 71  1  0  0  0
  7  6  2  0  0  0
  7 12  1  0  0  0
  7 72  1  0  0  0
  8 13  1  0  0  0
  8 73  1  0  0  0
  9  1  2  0  0  0
  9  2  1  0  0  0
 10 26  2  0  0  0
 10 49  1  0  0  0
 11 21  2  0  0  0
 12 23  2  0  0  0
 13 65  1  0  0  0
 14 27  2  0  0  0
 15 74  1  0  0  0
 15 75  1  0  0  0
 16 18  2  0  0  0
 16 76  1  0  0  0
 17 16  1  0  0  0
 17 77  1  0  0  0
 18 78  1  0  0  0
 19 79  1  0  0  0
 20 17  2  0  0  0
 20 11  1  0  0  0
 20 80  1  0  0  0
 21 18  1  0  0  0
 21 81  1  0  0  0
 22 13  2  0  0  0
 22 82  1  0  0  0
 23 26  1  0  0  0
 23 83  1  0  0  0
 24  4  1  0  0  0
 25 19  1  0  0  0
 25 48  1  0  0  0
 26 63  1  0  0  0
 27 15  1  0  0  0
 27  9  1  0  0  0
 28 50  1  0  0  0
 28 24  1  0  0  0
 29 39  1  0  0  0
 29 14  1  0  0  0
 29 84  1  0  0  0
 29 85  1  0  0  0
 30 15  1  0  0  0
 30 86  1  0  0  0
 30 87  1  0  0  0
 31 33  1  0  0  0
 31 88  1  0  0  0
 31 89  1  0  0  0
 32 48  1  0  0  0
 32 34  1  0  0  0
 32 90  1  0  0  0
 32 91  1  0  0  0
 33 92  1  0  0  0
 33 93  1  0  0  0
 34 51  1  0  0  0
 34 94  1  0  0  0
 34 95  1  0  0  0
 35 37  1  0  0  0
 35 96  1  0  0  0
 35 97  1  0  0  0
 36 52  1  0  0  0
 36 38  1  0  0  0
 36 98  1  0  0  0
 36 99  1  0  0  0
 37100  1  0  0  0
 37101  1  0  0  0
 38 58  1  0  0  0
 38102  1  0  0  0
 38103  1  0  0  0
 39 41  1  0  0  0
 39 30  1  0  0  0
 40 39  1  0  0  0
 40104  1  0  0  0
 40105  1  0  0  0
 40106  1  0  0  0
 41107  1  0  0  0
 41108  1  0  0  0
 41109  1  0  0  0
 42 14  1  0  0  0
 42110  1  0  0  0
 42111  1  0  0  0
 43112  1  0  0  0
 43113  1  0  0  0
 44 52  1  0  0  0
 44 43  1  0  0  0
 44114  1  0  0  0
 44115  1  0  0  0
 45 62  1  0  0  0
 45116  1  0  0  0
 45117  1  0  0  0
 46 45  1  0  0  0
 46 43  1  0  0  0
 46 49  1  0  0  0
 46118  1  0  0  0
 47 63  1  0  0  0
 47 59  1  0  0  0
 48 31  1  0  0  0
 49119  1  0  0  0
 50120  1  0  0  0
 51 33  1  0  0  0
 51 42  1  0  0  0
 52 35  1  0  0  0
 53 28  2  0  0  0
 57 64  2  0  0  0
 58 37  1  0  0  0
 60 47  1  0  0  0
 61 47  1  0  0  0
 62 11  1  0  0  0
 63 55  2  0  0  0
 63 54  2  0  0  0
 64 56  2  0  0  0
 64 50  1  0  0  0
 64 12  1  0  0  0
M  END
>  <2P2IDB_ID>
10101-0008

>  <Family>
BCL2

>  <UniProt>
P10415

>  <Class>
1

>  <Target>
BCL2

>  <SuperFamily>
BCL

>  <SuperFamily_ID>
101

>  <Target_ID>
10101

>  <Source>
Homo sapiens

>  <ExpData>
X-RAY DIFFRACTION

>  <PDBProtProt>
2XA0

>  <InstanceId>
4LVT_1XJ

>  <PDBProtLig>
4LVT

>  <Ligand>
1XJ

>  <ChainId>
A

>  <ResidueNumber>
301

>  <Atoms>
119

>  <HeavyAtoms>
64

>  <MissingHeavyAtoms>
0

>  <MolecularWeight>
974.613

>  <ObservedFormula>
C47 Cl F3 N5 O6 S3

>  <Formula>
C47 H55 Cl F3 N5 O6 S3

>  <Type>
non-polymer

>  <Covalent>
na

>  <Deposition_Date>
2013-07-26

>  <Modified_Date>
2017-08-02

>  <2P2IDB_Date>
2022-05-01

>  <InChIKey>
JLYAXFNOILIKPP-KXQOOQHDSA-N

>  <SMILES>
c1c(ccc(c1)Cl)C1=C(CC(CC1)(C)C)CN1CCN(c2ccc(cc2)C(=O)NS(=O)(=O)c2ccc(c(c2)S(=O)(=O)C(F)(F)F)N[C@H](CCN2CCOCC2)CSc2ccccc2)CC1

>  <SDF>
4LVT_1XJ_A_301

$$$$
1XV
  CCTOOLS-0506221807

 86 91  0  0  0  0  0  0  0  0999 V2000
    7.3830    1.7780    1.1910 C   0  0  0  0  0
    8.4730    1.8280   -0.9620 C   0  0  0  0  0
   -0.1420   -0.3970    1.1010 C   0  0  0  0  0
   -0.2020   -2.2660   -0.4340 C   0  0  0  0  0
    6.7380    5.3790   -0.4060 CL  0  0  0  0  0
    1.1410   -0.1090    0.6950 C   0  0  0  0  0
    1.0830   -1.9760   -0.8330 C   0  0  0  0  0
   -6.4180    0.2740    0.9370 C   0  0  0  0  0
   -5.6160   -0.7860    1.3120 C   0  0  0  0  0
    6.9540    3.0750    0.9970 C   0  0  0  0  0
    8.0420    3.1260   -1.1430 C   0  0  0  0  0
   -6.0310   -1.8530   -0.7940 C   0  0  0  0  0
    8.1500    1.1460    0.2120 C   0  0  0  0  0
   -0.8240   -1.4810    0.5410 C   0  0  0  0  0
    1.7600   -0.8960   -0.2730 C   0  0  0  0  0
   -7.0310    0.2720   -0.3100 C   0  0  0  0  0
   -6.8340   -0.7960   -1.1760 C   0  0  0  0  0
   -5.4190   -1.8460    0.4450 C   0  0  0  0  0
    7.2820    3.7480   -0.1680 C   0  0  0  0  0
    8.6190   -0.2410    0.4170 C   0  0  0  0  0
    8.1680   -1.1880   -0.3780 C   0  0  0  0  0
   -2.1970   -1.7970    0.9780 C   0  0  0  0  0
    9.5980   -0.5190    1.5250 C   0  0  0  0  0
    8.5810   -2.6260   -0.2410 C   0  0  0  0  0
   -9.0160    2.3000    1.2320 C   0  0  0  0  0
   -8.3340    3.7410   -0.6870 C   0  0  0  0  0
    3.5140   -1.5510   -1.7050 C   0  0  0  0  0
    3.9770   -0.5800    0.4630 C   0  0  0  0  0
    4.9100   -1.1470   -2.1840 C   0  0  0  0  0
    5.3730   -0.1760   -0.0160 C   0  0  0  0  0
    9.6230   -2.0210    1.8220 C   0  0  0  0  0
   -9.1690    3.5720    2.0700 C   0  0  0  0  0
   -8.5130    4.9570    0.2260 C   0  0  0  0  0
   -7.9430    2.5280    0.1630 C   0  0  0  0  0
    7.2000   -0.8150   -1.4710 C   0  0  0  0  0
    3.0560   -0.6010   -0.6810 N   0  0  0  0  0
    5.8310   -1.1260   -1.0390 N   0  0  0  0  0
   -7.8430    1.3420   -0.6920 N   0  0  0  0  0
   -2.8530   -2.8420    0.4370 N   0  0  0  0  0
   -7.4900   -0.8050   -2.5030 N   0  3  0  0  0
   -7.9180   -1.8480   -2.9640 O   0  0  0  0  0
   -2.7370   -1.1130    1.8270 O   0  0  0  0  0
   -7.6000    0.2310   -3.1340 O   0  5  0  0  0
   -4.3730   -3.1960    2.3490 O   0  0  0  0  0
   -4.8150   -4.3140    0.1570 O   0  0  0  0  0
    9.7450   -2.7270    0.5820 O   0  0  0  0  0
   -9.5020    4.6670    1.2150 O   0  0  0  0  0
   -4.3950   -3.1960    0.9280 S   0  0  0  0  0
    7.1300    1.2550    2.1020 H   0  0  0  0  0
    9.0670    1.3430   -1.7230 H   0  0  0  0  0
   -0.6200    0.2110    1.8550 H   0  0  0  0  0
   -0.7260   -3.1040   -0.8690 H   0  0  0  0  0
    1.6680    0.7280    1.1280 H   0  0  0  0  0
    1.5640   -2.5820   -1.5860 H   0  0  0  0  0
   -6.5730    1.1010    1.6140 H   0  0  0  0  0
   -5.1430   -0.7880    2.2820 H   0  0  0  0  0
    6.3600    3.5650    1.7540 H   0  0  0  0  0
    8.2920    3.6540   -2.0510 H   0  0  0  0  0
   -5.8750   -2.6820   -1.4690 H   0  0  0  0  0
   10.5920   -0.1930    1.2200 H   0  0  0  0  0
    9.2970    0.0230    2.4210 H   0  0  0  0  0
    7.7680   -3.1940    0.2130 H   0  0  0  0  0
    8.8010   -3.0350   -1.2270 H   0  0  0  0  0
   -8.7190    1.4720    1.8760 H   0  0  0  0  0
   -9.9660    2.0640    0.7520 H   0  0  0  0  0
   -9.2690    3.5350   -1.2070 H   0  0  0  0  0
   -7.5490    3.9440   -1.4150 H   0  0  0  0  0
    2.8220   -1.5400   -2.5470 H   0  0  0  0  0
    3.5510   -2.5540   -1.2790 H   0  0  0  0  0
    4.0200   -1.5720    0.9140 H   0  0  0  0  0
    3.6230    0.1400    1.2020 H   0  0  0  0  0
    5.2640   -1.8670   -2.9220 H   0  0  0  0  0
    4.8660   -0.1550   -2.6340 H   0  0  0  0  0
    5.3350    0.8270   -0.4420 H   0  0  0  0  0
    6.0640   -0.1870    0.8270 H   0  0  0  0  0
   10.4750   -2.2540    2.4610 H   0  0  0  0  0
    8.6980   -2.3120    2.3190 H   0  0  0  0  0
   -9.9610    3.4300    2.8050 H   0  0  0  0  0
   -8.2310    3.7830    2.5840 H   0  0  0  0  0
   -7.5660    5.1870    0.7150 H   0  0  0  0  0
   -8.8330    5.8130   -0.3680 H   0  0  0  0  0
   -6.9830    2.7140    0.6440 H   0  0  0  0  0
    7.2820    0.2520   -1.6800 H   0  0  0  0  0
    7.4340   -1.3810   -2.3730 H   0  0  0  0  0
   -8.3410    1.3010   -1.5230 H   0  0  0  0  0
   -2.4230   -3.3870   -0.2400 H   0  0  0  0  0
  1 13  1  0  0  0
  1 49  1  0  0  0
  2 13  2  0  0  0
  2 50  1  0  0  0
  3 14  1  0  0  0
  3 51  1  0  0  0
  4 14  2  0  0  0
  4 52  1  0  0  0
  5 19  1  0  0  0
  6  3  2  0  0  0
  6 53  1  0  0  0
  7  4  1  0  0  0
  7 54  1  0  0  0
  8  9  1  0  0  0
  8 55  1  0  0  0
  9 56  1  0  0  0
 10  1  2  0  0  0
 10 57  1  0  0  0
 11  2  1  0  0  0
 11 58  1  0  0  0
 12 18  1  0  0  0
 12 59  1  0  0  0
 13 20  1  0  0  0
 14 22  1  0  0  0
 15  6  1  0  0  0
 15  7  2  0  0  0
 16  8  2  0  0  0
 17 12  2  0  0  0
 17 16  1  0  0  0
 18  9  2  0  0  0
 18 48  1  0  0  0
 19 10  1  0  0  0
 19 11  2  0  0  0
 20 21  2  0  0  0
 21 35  1  0  0  0
 21 24  1  0  0  0
 22 42  2  0  0  0
 23 20  1  0  0  0
 23 31  1  0  0  0
 23 60  1  0  0  0
 23 61  1  0  0  0
 24 62  1  0  0  0
 24 63  1  0  0  0
 25 32  1  0  0  0
 25 64  1  0  0  0
 25 65  1  0  0  0
 26 33  1  0  0  0
 26 34  1  0  0  0
 26 66  1  0  0  0
 26 67  1  0  0  0
 27 36  1  0  0  0
 27 68  1  0  0  0
 27 69  1  0  0  0
 28 70  1  0  0  0
 28 71  1  0  0  0
 29 27  1  0  0  0
 29 37  1  0  0  0
 29 72  1  0  0  0
 29 73  1  0  0  0
 30 28  1  0  0  0
 30 74  1  0  0  0
 30 75  1  0  0  0
 31 46  1  0  0  0
 31 76  1  0  0  0
 31 77  1  0  0  0
 32 78  1  0  0  0
 32 79  1  0  0  0
 33 47  1  0  0  0
 33 80  1  0  0  0
 33 81  1  0  0  0
 34 25  1  0  0  0
 34 82  1  0  0  0
 35 37  1  0  0  0
 35 83  1  0  0  0
 35 84  1  0  0  0
 36 15  1  0  0  0
 36 28  1  0  0  0
 37 30  1  0  0  0
 38 16  1  0  0  0
 38 34  1  0  0  0
 38 85  1  0  0  0
 39 22  1  0  0  0
 39 48  1  0  0  0
 39 86  1  0  0  0
 40 17  1  0  0  0
 41 40  2  0  0  0
 43 40  1  0  0  0
 44 48  2  0  0  0
 46 24  1  0  0  0
 47 32  1  0  0  0
 48 45  2  0  0  0
M  CHG  1  40   1
M  CHG  1  43  -1
M  END
>  <2P2IDB_ID>
10101-0009

>  <Family>
BCL2

>  <UniProt>
P10415

>  <Class>
1

>  <Target>
BCL2

>  <SuperFamily>
BCL

>  <SuperFamily_ID>
101

>  <Target_ID>
10101

>  <Source>
Homo sapiens

>  <ExpData>
X-RAY DIFFRACTION

>  <PDBProtProt>
2XA0

>  <InstanceId>
4LXD_1XV

>  <PDBProtLig>
4LXD

>  <Ligand>
1XV

>  <ChainId>
A

>  <ResidueNumber>
301

>  <Atoms>
84

>  <HeavyAtoms>
46

>  <MissingHeavyAtoms>
0

>  <MolecularWeight>
696.213

>  <ObservedFormula>
C34 Cl N5 O7 S

>  <Formula>
C34 H38 Cl N5 O7 S

>  <Type>
non-polymer

>  <Covalent>
na

>  <Deposition_Date>
2013-07-29

>  <Modified_Date>
2017-08-02

>  <2P2IDB_Date>
2022-05-01

>  <InChIKey>
AJWKZOOIFOHKSK-UHFFFAOYSA-N

>  <SMILES>
c1cc(Cl)ccc1C1=C(COCC1)CN1CCN(c2ccc(cc2)C(=O)NS(=O)(=O)c2ccc(c(c2)[N+](=O)[O-])NC2CCOCC2)CC1

>  <SDF>
4LXD_1XV_A_301

$$$$
1Y1
  CCTOOLS-0506221807

117124  0  0  0  0  0  0  0  0999 V2000
   -7.0830    1.0110   -4.0260 C   0  0  0  0  0
   -6.8270    2.1720   -3.3260 C   0  0  0  0  0
   -5.2880    4.1790   -1.5390 C   0  0  0  0  0
   -7.1960    3.7480   -0.1300 C   0  0  0  0  0
    0.5460    0.8630    2.9930 C   0  0  0  0  0
   -0.1290   -5.5920    0.8560 C   0  0  0  0  0
   -5.5430    7.1700    1.0930 CL  0  0  0  0  0
   -0.7880    0.8800    2.7030 C   0  0  0  0  0
    6.8520    1.9200    0.5850 C   0  0  0  0  0
   -7.1680   -0.1980   -3.3590 C   0  0  0  0  0
    0.4740   -4.5850    1.5740 C   0  0  0  0  0
    6.1730    1.9340    1.7860 C   0  0  0  0  0
   -5.0400    5.3420   -0.8380 C   0  0  0  0  0
   -6.9360    4.9090    0.5690 C   0  0  0  0  0
   -0.2670   -4.4230   -2.5650 C   0  0  0  0  0
    0.6870   -3.2440   -0.4120 C   0  0  0  0  0
   -0.6240   -1.3170    1.7170 C   0  0  0  0  0
    6.1390   -0.4630    1.8040 C   0  0  0  0  0
   -0.8370   -5.6310   -2.6950 C   0  0  0  0  0
    0.0820   -4.2630   -1.1510 C   0  0  0  0  0
   -6.3710    3.3760   -1.1900 C   0  0  0  0  0
   -6.6470    2.1280   -1.9440 C   0  0  0  0  0
    1.3240   -0.2480    2.6490 C   0  0  0  0  0
   -6.7270    0.9100   -1.2750 C   0  0  0  0  0
   -0.3290   -5.4470   -0.5130 C   0  0  0  0  0
   -1.3840   -0.2060    2.0640 C   0  0  0  0  0
    7.1730    0.7090   -0.0160 C   0  0  0  0  0
    6.8130   -0.4840    0.5980 C   0  0  0  0  0
    0.8830   -3.4110    0.9450 C   0  0  0  0  0
   -6.9900   -0.2500   -1.9840 C   0  0  0  0  0
    0.7290   -1.3440    2.0060 C   0  0  0  0  0
    5.8170    0.7450    2.3960 C   0  0  0  0  0
   -5.8610    5.7070    0.2150 C   0  0  0  0  0
    2.7630   -0.2660    2.9610 C   0  0  0  0  0
    9.6860    2.9280   -3.6860 C   0  0  0  0  0
    8.0340    1.1180   -4.1550 C   0  0  0  0  0
   -2.9800   -0.3910    0.3390 C   0  0  0  0  0
   -3.3530    1.0800    2.2250 C   0  0  0  0  0
   -4.4870   -0.4330    0.0750 C   0  0  0  0  0
   -4.8600    1.0380    1.9600 C   0  0  0  0  0
   10.3180    2.6390   -5.0500 C   0  0  0  0  0
    8.7300    0.8990   -5.5010 C   0  0  0  0  0
    9.0550    1.6430   -3.1410 C   0  0  0  0  0
   -9.8020   -3.8810   -0.9730 C   0  0  0  0  0
   -8.3780   -4.6600    0.8240 C   0  0  0  0  0
   -6.5330    0.8550    0.2190 C   0  0  0  0  0
    8.3530    1.9400   -1.8140 C   0  0  0  0  0
   -7.3940   -3.8330   -1.2280 C   0  0  0  0  0
   -7.3440   -2.5970   -2.1280 C   0  0  0  0  0
   -0.8850   -6.2580   -1.4800 N   0  0  0  0  0
   -2.7430   -0.1790    1.7740 N   0  0  0  0  0
   -5.0960    0.8260    0.5250 N   0  0  0  0  0
    7.8540    0.6900   -1.2350 N   0  0  0  0  0
    3.3320    0.7880    3.5790 N   0  0  0  0  0
   -8.5150   -3.7080   -0.2860 N   0  0  0  0  0
    7.1590   -1.7770   -0.0340 N   0  3  0  0  0
    8.2260   -1.9090   -0.6060 O   0  0  0  0  0
    3.4380   -1.2320    2.6620 O   0  0  0  0  0
    6.3750   -2.7080    0.0170 O   0  5  0  0  0
    5.2090   -0.4820    4.5560 O   0  0  0  0  0
    5.2450    2.0180    4.5380 O   0  0  0  0  0
    9.3210    2.1250   -5.9360 O   0  0  0  0  0
    1.4760   -2.4250    1.6690 O   0  0  0  0  0
   -7.0690   -1.4410   -1.3340 O   0  0  0  0  0
    4.9500    0.7680    3.9300 S   0  0  0  0  0
   -7.2230    1.0460   -5.0960 H   0  0  0  0  0
   -6.7650    3.1150   -3.8490 H   0  0  0  0  0
   -4.6460    3.8950   -2.3600 H   0  0  0  0  0
   -8.0360    3.1280    0.1450 H   0  0  0  0  0
    1.0020    1.7100    3.4840 H   0  0  0  0  0
   -0.4410   -6.4980    1.3540 H   0  0  0  0  0
   -1.3850    1.7390    2.9710 H   0  0  0  0  0
    7.1300    2.8490    0.1090 H   0  0  0  0  0
   -7.3730   -1.1030   -3.9110 H   0  0  0  0  0
    0.6320   -4.7050    2.6360 H   0  0  0  0  0
    5.9190    2.8750    2.2520 H   0  0  0  0  0
   -4.2030    5.9670   -1.1110 H   0  0  0  0  0
   -7.5740    5.1990    1.3910 H   0  0  0  0  0
   -0.0950   -3.7050   -3.3540 H   0  0  0  0  0
    1.0040   -2.3340   -0.8980 H   0  0  0  0  0
   -1.0890   -2.1570    1.2220 H   0  0  0  0  0
    5.8590   -1.3900    2.2820 H   0  0  0  0  0
   -1.2050   -6.0470   -3.6220 H   0  0  0  0  0
   -1.2540   -7.1400   -1.3220 H   0  0  0  0  0
    7.9960   -0.1500   -1.6990 H   0  0  0  0  0
   10.4530    3.2790   -2.9960 H   0  0  0  0  0
    8.9170    3.6940   -3.7950 H   0  0  0  0  0
    7.2320    1.8470   -4.2740 H   0  0  0  0  0
    7.6200    0.1750   -3.8010 H   0  0  0  0  0
   -2.5310   -1.3350    0.0320 H   0  0  0  0  0
   -2.5340    0.4260   -0.2280 H   0  0  0  0  0
   -2.9110    1.9140    1.6800 H   0  0  0  0  0
   -3.1750    1.2080    3.2930 H   0  0  0  0  0
   -4.6650   -0.5610   -0.9930 H   0  0  0  0  0
   -4.9290   -1.2670    0.6200 H   0  0  0  0  0
   -5.3060    0.2210    2.5270 H   0  0  0  0  0
   -5.3090    1.9820    2.2670 H   0  0  0  0  0
   10.7310    3.5600   -5.4620 H   0  0  0  0  0
   11.1140    1.9040   -4.9330 H   0  0  0  0  0
    9.5050    0.1410   -5.3900 H   0  0  0  0  0
    7.9990    0.5660   -6.2380 H   0  0  0  0  0
    9.8320    0.8940   -2.9840 H   0  0  0  0  0
  -10.6140   -3.7840   -0.2520 H   0  0  0  0  0
   -9.9070   -3.1190   -1.7450 H   0  0  0  0  0
   -9.8390   -4.8700   -1.4310 H   0  0  0  0  0
   -7.4920   -4.4120    1.4090 H   0  0  0  0  0
   -9.2610   -4.6050    1.4610 H   0  0  0  0  0
   -8.2800   -5.6700    0.4260 H   0  0  0  0  0
   -6.9840    1.7350    0.6770 H   0  0  0  0  0
   -7.0070   -0.0430    0.6140 H   0  0  0  0  0
    9.0590    2.4030   -1.1250 H   0  0  0  0  0
    7.5180    2.6190   -1.9890 H   0  0  0  0  0
   -7.5340   -4.7240   -1.8420 H   0  0  0  0  0
   -6.4600   -3.9170   -0.6730 H   0  0  0  0  0
   -6.5580   -2.7210   -2.8720 H   0  0  0  0  0
   -8.3040   -2.4730   -2.6290 H   0  0  0  0  0
    2.7940    1.5590    3.8180 H   0  0  0  0  0
  1 66  1  0  0  0
  1 10  1  0  0  0
  2  1  2  0  0  0
  3 68  1  0  0  0
  3 21  1  0  0  0
  4 69  1  0  0  0
  4 21  2  0  0  0
  5  8  2  0  0  0
  5 23  1  0  0  0
  6 71  1  0  0  0
  6 25  1  0  0  0
  7 33  1  0  0  0
  8 26  1  0  0  0
  9 73  1  0  0  0
  9 27  1  0  0  0
 10 74  1  0  0  0
 11  6  2  0  0  0
 12  9  2  0  0  0
 13  3  2  0  0  0
 14  4  1  0  0  0
 15 79  1  0  0  0
 15 19  2  0  0  0
 16 20  1  0  0  0
 17 81  1  0  0  0
 18 28  1  0  0  0
 19 83  1  0  0  0
 20 15  1  0  0  0
 20 25  2  0  0  0
 21 22  1  0  0  0
 22  2  1  0  0  0
 22 24  2  0  0  0
 23 31  2  0  0  0
 24 30  1  0  0  0
 25 50  1  0  0  0
 26 17  2  0  0  0
 26 51  1  0  0  0
 27 53  1  0  0  0
 28 27  2  0  0  0
 28 56  1  0  0  0
 29 11  1  0  0  0
 29 16  2  0  0  0
 30 10  2  0  0  0
 30 64  1  0  0  0
 31 17  1  0  0  0
 31 63  1  0  0  0
 32 12  1  0  0  0
 32 18  2  0  0  0
 33 13  1  0  0  0
 33 14  2  0  0  0
 34 23  1  0  0  0
 34 58  2  0  0  0
 35 41  1  0  0  0
 35 86  1  0  0  0
 35 87  1  0  0  0
 36 42  1  0  0  0
 36 88  1  0  0  0
 36 89  1  0  0  0
 37 39  1  0  0  0
 37 90  1  0  0  0
 37 91  1  0  0  0
 38 40  1  0  0  0
 38 51  1  0  0  0
 38 92  1  0  0  0
 38 93  1  0  0  0
 39 94  1  0  0  0
 39 95  1  0  0  0
 40 52  1  0  0  0
 40 96  1  0  0  0
 40 97  1  0  0  0
 41 62  1  0  0  0
 41 98  1  0  0  0
 41 99  1  0  0  0
 42 62  1  0  0  0
 42100  1  0  0  0
 42101  1  0  0  0
 43 35  1  0  0  0
 43 36  1  0  0  0
 43102  1  0  0  0
 44103  1  0  0  0
 44104  1  0  0  0
 44105  1  0  0  0
 45 55  1  0  0  0
 45106  1  0  0  0
 45107  1  0  0  0
 45108  1  0  0  0
 46 24  1  0  0  0
 46109  1  0  0  0
 46110  1  0  0  0
 47 43  1  0  0  0
 47111  1  0  0  0
 47112  1  0  0  0
 48 55  1  0  0  0
 48113  1  0  0  0
 48114  1  0  0  0
 49 48  1  0  0  0
 49115  1  0  0  0
 49116  1  0  0  0
 50 19  1  0  0  0
 50 84  1  0  0  0
 51 37  1  0  0  0
 52 39  1  0  0  0
 52 46  1  0  0  0
 53 47  1  0  0  0
 53 85  1  0  0  0
 54 34  1  0  0  0
 54 65  1  0  0  0
 54117  1  0  0  0
 55 44  1  0  0  0
 56 59  1  0  0  0
 57 56  2  0  0  0
 60 65  2  0  0  0
 61 65  2  0  0  0
 63 29  1  0  0  0
 64 49  1  0  0  0
 65 32  1  0  0  0
 67  2  1  0  0  0
 70  5  1  0  0  0
 72  8  1  0  0  0
 75 11  1  0  0  0
 76 12  1  0  0  0
 77 13  1  0  0  0
 78 14  1  0  0  0
 80 16  1  0  0  0
 82 18  1  0  0  0
M  CHG  1  56   1
M  CHG  1  59  -1
M  END
>  <2P2IDB_ID>
10101-0010

>  <Family>
BCL2

>  <UniProt>
P10415

>  <Class>
1

>  <Target>
BCL2

>  <SuperFamily>
BCL

>  <SuperFamily_ID>
101

>  <Target_ID>
10101

>  <Source>
Homo sapiens

>  <ExpData>
X-RAY DIFFRACTION

>  <PDBProtProt>
2XA0

>  <InstanceId>
4MAN_1Y1

>  <PDBProtLig>
4MAN

>  <Ligand>
1Y1

>  <ChainId>
A

>  <ResidueNumber>
301

>  <Atoms>
115

>  <HeavyAtoms>
63

>  <MissingHeavyAtoms>
0

>  <MolecularWeight>
922.487

>  <ObservedFormula>
C48 Cl N7 O8 S

>  <Formula>
C48 H52 Cl N7 O8 S

>  <Type>
non-polymer

>  <Covalent>
na

>  <Deposition_Date>
2013-08-16

>  <Modified_Date>
2017-11-15

>  <2P2IDB_Date>
2022-05-01

>  <InChIKey>
OEPSXIVYHBPSCA-UHFFFAOYSA-N

>  <SMILES>
c1cc(c2ccc(Cl)cc2)c(c(c1)OCCN(C)C)CN1CCN(c2ccc(c(c2)Oc2ccc3c(cc[nH]3)c2)C(=O)NS(=O)(=O)c2ccc(c(c2)[N+](=O)[O-])NCC2CCOCC2)CC1

>  <SDF>
4MAN_1Y1_A_301

$$$$
F3Q
  CCTOOLS-0506221811

 95103  0  0  1  0  0  0  0  0999 V2000
   -1.3900   -4.6030    0.4500 C   0  0  0  0  0
   -0.4810   -5.7500   -0.0130 C   0  0  0  0  0
    1.5000   -4.2750   -0.4150 C   0  0  0  0  0
    0.9600   -5.4490    0.4090 C   0  0  0  0  0
   -0.7520   -3.2990    0.0360 C   0  0  0  0  0
    0.5370   -3.1660   -0.3480 N   0  0  0  0  0
    0.7800   -1.8510   -0.6560 C   0  0  0  0  0
   -0.3660   -1.1440   -0.4640 C   0  0  0  0  0
   -1.3530   -2.0630   -0.0210 C   0  0  0  0  0
   -2.7530   -1.7530    0.3140 C   0  0  0  0  0
   -3.3130   -2.3560    1.2100 O   0  0  0  0  0
   -3.4150   -0.8010   -0.3730 N   0  0  0  0  0
    2.0680   -1.2970   -1.1180 C   0  0  0  0  0
    2.7490   -1.8960   -2.1760 C   0  0  0  0  0
    2.6130   -0.1560   -0.4950 C   0  0  0  0  0
    4.4990   -0.2470   -1.9860 C   0  0  0  0  0
    3.9570   -1.3760   -2.6080 C   0  0  0  0  0
    4.8040   -1.7750   -3.5990 O   0  0  0  0  0
    6.0620   -1.1360   -3.3120 C   0  0  0  0  0
    5.6860    0.0530   -2.5920 O   0  0  0  0  0
    1.9000    0.4890    0.6210 C   0  0  0  0  0
    1.7730    1.8300    0.6540 N   0  0  0  0  0
    1.4260   -0.1890    1.5130 O   0  0  0  0  0
    1.1810    2.5150    1.8150 C   0  0  0  0  0
   -0.1090    3.1910    1.3540 C   0  0  0  0  0
    2.2250    2.6670   -0.4630 C   0  0  0  0  0
    1.1820    3.7130   -0.7670 C   0  0  0  0  0
    0.1130    3.9550    0.0760 C   0  0  0  0  0
   -0.8090    4.9410   -0.2540 C   0  0  0  0  0
   -0.6710    5.6710   -1.4160 C   0  0  0  0  0
    0.3930    5.4220   -2.2610 C   0  0  0  0  0
    1.3220    4.4450   -1.9380 C   0  0  0  0  0
    0.8690    1.4970    2.9130 C   0  0  0  0  0
    3.8320    0.3590   -0.9400 C   0  0  0  0  0
    2.1120    0.8390    3.3390 N   0  0  0  0  0
    1.8270   -0.3250    4.1910 C   0  0  0  0  0
    3.1430   -1.0130    4.5620 C   0  0  0  0  0
    4.0040   -0.0690    5.2050 O   0  0  0  0  0
    4.3030    1.0770    4.4040 C   0  0  0  0  0
    2.9980    1.7860    4.0310 C   0  0  0  0  0
   -4.7040   -0.4190    0.0240 C   0  0  0  0  0
   -2.8160   -0.1940   -1.4820 C   0  0  0  0  0
   -5.2400   -0.9070    1.2080 C   0  0  0  0  0
   -6.5090   -0.5300    1.5990 C   0  0  0  0  0
   -7.2500    0.3360    0.8080 C   0  0  0  0  0
   -6.7150    0.8250   -0.3750 C   0  0  0  0  0
   -5.4440    0.4530   -0.7640 C   0  0  0  0  0
   -2.5010   -0.9510   -2.6040 C   0  0  0  0  0
   -1.9100   -0.3490   -3.6970 C   0  0  0  0  0
   -1.6320    1.0060   -3.6770 C   0  0  0  0  0
   -1.9440    1.7620   -2.5620 C   0  0  0  0  0
   -2.5400    1.1670   -1.4670 C   0  0  0  0  0
   -8.5000    0.7060    1.1920 O   0  0  0  0  0
   -2.3690   -4.6990   -0.0180 H   0  0  0  0  0
   -1.4960   -4.6330    1.5340 H   0  0  0  0  0
   -0.8080   -6.6820    0.4480 H   0  0  0  0  0
   -0.5340   -5.8410   -1.0970 H   0  0  0  0  0
    2.4570   -3.9530   -0.0060 H   0  0  0  0  0
    1.6290   -4.5850   -1.4520 H   0  0  0  0  0
    0.9830   -5.1900    1.4670 H   0  0  0  0  0
    1.5800   -6.3280    0.2360 H   0  0  0  0  0
   -0.4990   -0.0840   -0.6190 H   0  0  0  0  0
    2.3330   -2.7680   -2.6590 H   0  0  0  0  0
    6.6850   -1.7780   -2.6900 H   0  0  0  0  0
    1.8750    3.2660    2.1940 H   0  0  0  0  0
   -0.8730    2.4300    1.1890 H   0  0  0  0  0
   -0.4500    3.8780    2.1280 H   0  0  0  0  0
    3.1610    3.1560   -0.1940 H   0  0  0  0  0
    2.3820    2.0440   -1.3430 H   0  0  0  0  0
   -1.6420    5.1370    0.4060 H   0  0  0  0  0
   -1.3930    6.4350   -1.6650 H   0  0  0  0  0
    0.5050    5.9880   -3.1750 H   0  0  0  0  0
    2.1560    4.2500   -2.5950 H   0  0  0  0  0
    0.4180    2.0070    3.7640 H   0  0  0  0  0
    0.1760    0.7490    2.5290 H   0  0  0  0  0
    4.2550    1.2310   -0.4640 H   0  0  0  0  0
    1.3190    0.0040    5.0980 H   0  0  0  0  0
    1.1900   -1.0240    3.6500 H   0  0  0  0  0
    2.9410   -1.8420    5.2400 H   0  0  0  0  0
    3.6240   -1.3890    3.6590 H   0  0  0  0  0
    4.9400    1.7590    4.9670 H   0  0  0  0  0
    4.8190    0.7620    3.4960 H   0  0  0  0  0
    3.2170    2.6280    3.3730 H   0  0  0  0  0
    2.5100    2.1480    4.9350 H   0  0  0  0  0
   -4.6630   -1.5820    1.8240 H   0  0  0  0  0
   -6.9260   -0.9100    2.5200 H   0  0  0  0  0
   -7.2930    1.4990   -0.9910 H   0  0  0  0  0
   -5.0280    0.8340   -1.6850 H   0  0  0  0  0
   -2.7170   -2.0090   -2.6200 H   0  0  0  0  0
   -1.6640   -0.9370   -4.5690 H   0  0  0  0  0
   -1.1700    1.4740   -4.5330 H   0  0  0  0  0
   -1.7250    2.8190   -2.5480 H   0  0  0  0  0
   -2.7890    1.7590   -0.5980 H   0  0  0  0  0
   -8.5240    1.5020    1.7410 H   0  0  0  0  0
    6.5790   -0.8770   -4.2360 H   0  0  0  0  0
  1 54  1  0  0  0
  1 55  1  0  0  0
  2  1  1  0  0  0
  2 56  1  0  0  0
  2 57  1  0  0  0
  3  6  1  0  0  0
  3  4  1  0  0  0
  3 58  1  0  0  0
  3 59  1  0  0  0
  4  2  1  0  0  0
  4 60  1  0  0  0
  4 61  1  0  0  0
  5  9  2  0  0  0
  5  1  1  0  0  0
  6  5  1  0  0  0
  7  6  1  0  0  0
  7  8  2  0  0  0
  8  9  1  0  0  0
  8 62  1  0  0  0
  9 10  1  0  0  0
 10 12  1  0  0  0
 10 11  2  0  0  0
 12 42  1  0  0  0
 13  7  1  0  0  0
 14 13  2  0  0  0
 14 63  1  0  0  0
 15 13  1  0  0  0
 15 21  1  0  0  0
 16 17  2  0  0  0
 16 34  1  0  0  0
 17 14  1  0  0  0
 18 17  1  0  0  0
 19 20  1  0  0  0
 19 18  1  0  0  0
 19 64  1  0  0  0
 19 95  1  0  0  0
 20 16  1  0  0  0
 21 23  2  0  0  0
 21 22  1  0  0  0
 22 24  1  0  0  0
 24 25  1  0  0  0
 24 65  1  0  0  0
 25 66  1  0  0  0
 25 67  1  0  0  0
 26 22  1  0  0  0
 26 27  1  0  0  0
 26 68  1  0  0  0
 26 69  1  0  0  0
 27 28  1  0  0  0
 28 25  1  0  0  0
 28 29  2  0  0  0
 29 70  1  0  0  0
 30 29  1  0  0  0
 30 71  1  0  0  0
 31 30  2  0  0  0
 31 72  1  0  0  0
 32 27  2  0  0  0
 32 31  1  0  0  0
 32 73  1  0  0  0
 33 24  1  0  0  0
 33 35  1  0  0  0
 33 74  1  0  0  0
 33 75  1  0  0  0
 34 15  2  0  0  0
 34 76  1  0  0  0
 36 37  1  0  0  0
 36 35  1  0  0  0
 36 77  1  0  0  0
 36 78  1  0  0  0
 37 79  1  0  0  0
 37 80  1  0  0  0
 38 37  1  0  0  0
 38 39  1  0  0  0
 39 81  1  0  0  0
 39 82  1  0  0  0
 40 35  1  0  0  0
 40 39  1  0  0  0
 40 83  1  0  0  0
 40 84  1  0  0  0
 41 12  1  0  0  0
 42 48  2  0  0  0
 42 52  1  0  0  0
 43 41  2  0  0  0
 43 85  1  0  0  0
 44 43  1  0  0  0
 44 86  1  0  0  0
 45 44  2  0  0  0
 45 46  1  0  0  0
 46 47  2  0  0  0
 46 87  1  0  0  0
 47 41  1  0  0  0
 47 88  1  0  0  0
 48 49  1  0  0  0
 48 89  1  0  0  0
 49 50  2  0  0  0
 49 90  1  0  0  0
 50 91  1  0  0  0
 51 50  1  0  0  0
 51 92  1  0  0  0
 52 51  2  0  0  0
 52 93  1  0  0  0
 53 45  1  0  0  0
 53 94  1  0  0  0
M  END
>  <2P2IDB_ID>
10101-0011

>  <Family>
BCL2

>  <UniProt>
P10415

>  <Class>
1

>  <Target>
BCL2

>  <SuperFamily>
BCL

>  <SuperFamily_ID>
101

>  <Target_ID>
10101

>  <Source>
Homo sapiens

>  <ExpData>
X-RAY DIFFRACTION

>  <PDBProtProt>
2XA0

>  <InstanceId>
6GL8_F3Q

>  <PDBProtLig>
6GL8

>  <Ligand>
F3Q

>  <ChainId>
A

>  <ResidueNumber>
301

>  <Atoms>
95

>  <HeavyAtoms>
53

>  <MissingHeavyAtoms>
0

>  <MolecularWeight>
710.817

>  <ObservedFormula>
C43 N4 O6

>  <Formula>
C43 H42 N4 O6

>  <Type>
non-polymer

>  <Covalent>
na

>  <Deposition_Date>
2018-05-23

>  <Modified_Date>
2018-11-14

>  <2P2IDB_Date>
2022-05-01

>  <InChIKey>
VYXJULKGMXJVGI-XIFFEERXSA-N

>  <SMILES>
C1CCCn2c1c(cc2c1cc2c(OCO2)cc1C(=O)N1[C@@H](Cc2c(C1)cccc2)CN1CCOCC1)C(=O)N(c1ccc(cc1)O)c1ccccc1

>  <SDF>
6GL8_F3Q_A_301

$$$$
LBM
  CCTOOLS-0506221803

111118  0  0  0  0  0  0  0  0999 V2000
    7.3080   -1.9710   -3.2670 C   0  0  0  0  0
    7.9660   -1.5370   -2.1350 C   0  0  0  0  0
    7.3500    0.6050   -0.2170 C   0  0  0  0  0
    5.3000   -0.5930    0.2600 C   0  0  0  0  0
    3.9210   -0.4680    0.9110 C   0  0  0  0  0
    3.8400    1.8700    0.2940 C   0  0  0  0  0
    5.2190    1.7460   -0.3570 C   0  0  0  0  0
    0.9710    1.6000    0.2220 C   0  0  0  0  0
   -0.3090    1.6920    0.7390 C   0  0  0  0  0
    0.2120   -0.0850    2.3040 C   0  0  0  0  0
    1.4700   -0.1750    1.7800 C   0  0  0  0  0
   -2.0570    0.9340    2.3470 C   0  0  0  0  0
   -5.0750   -0.2610    2.7080 C   0  0  0  0  0
   -5.5830    0.6890    1.8410 C   0  0  0  0  0
   -6.8230   -1.0180    0.7010 C   0  0  0  0  0
   -6.3110   -1.9690    1.5730 C   0  0  0  0  0
   -8.0580   -2.8110   -0.4830 C   0  0  0  0  0
    5.9910    0.7020    0.3310 N   0  0  0  0  0
   11.1610   -1.1940    1.2470 C   0  0  0  0  0
   -2.8470    1.7430    1.8970 O   0  0  0  0  0
   10.0470   -1.8520    2.0630 C   0  0  0  0  0
    6.2710   -2.8820   -3.1620 C   0  0  0  0  0
    1.8620    0.6680    0.7420 C   0  0  0  0  0
    9.2750   -0.7800    2.8410 C   0  0  0  0  0
   -0.6970    0.8440    1.7890 C   0  0  0  0  0
   -6.4560    0.3150    0.8380 C   0  0  0  0  0
    8.8480    0.3170    1.8630 C   0  0  0  0  0
   -5.4380   -1.5880    2.5740 C   0  0  0  0  0
   -9.0310   -2.9560   -1.6540 C   0  0  0  0  0
   -9.3050   -4.4400   -1.9130 C   0  0  0  0  0
  -10.3390   -4.5730   -3.0330 C   0  0  0  0  0
  -11.3450   -2.4740   -2.4560 C   0  0  0  0  0
  -10.3510   -2.2570   -1.3130 C   0  0  0  0  0
   -0.8020    3.3160   -0.8550 C   0  0  0  0  0
   -0.7970    2.7320   -2.1180 C   0  0  0  0  0
   -0.0590    4.6790   -3.1150 C   0  0  0  0  0
    8.1830   -0.2910    0.6630 C   0  0  0  0  0
   -0.0400    5.3360   -1.8700 C   0  0  0  0  0
   -0.4180    4.6410   -0.7190 C   0  0  0  0  0
    0.4140    6.7020   -2.1350 C   0  0  0  0  0
    0.6320    6.7910   -3.4570 C   0  0  0  0  0
   10.6520   -2.8650    3.0370 C   0  0  0  0  0
    8.2860   -1.5560    0.3350 C   0  0  0  0  0
    9.0720   -2.5640    1.1220 C   0  0  0  0  0
    7.5850   -2.0180   -0.8820 C   0  0  0  0  0
    6.5390   -2.9360   -0.7820 C   0  0  0  0  0
    5.8920   -3.3680   -1.9210 C   0  0  0  0  0
    3.1490    0.5760    0.2230 N   0  0  0  0  0
   -2.4270    0.1190    3.3550 N   0  0  0  0  0
   -7.7050   -1.4000   -0.3130 N   0  0  0  0  0
   -6.9990    1.3330   -0.0890 N   0  3  0  0  0
   -0.4360    3.4090   -3.1870 N   0  0  0  0  0
    0.3550    5.5920   -4.0570 N   0  0  0  0  0
   -4.1990    1.5980    4.2290 O   0  0  0  0  0
   -4.0430   -0.7780    4.9900 O   0  0  0  0  0
  -11.5310   -3.8750   -2.6650 O   0  0  0  0  0
   -7.1400    1.0680   -1.2690 O   0  5  0  0  0
   -7.3060    2.4350    0.3290 O   0  0  0  0  0
   -1.1850    2.5960    0.2330 O   0  0  0  0  0
   -3.9570    0.2200    3.9820 S   0  0  0  0  0
    5.4420   -3.4180   -4.5900 CL  0  0  0  0  0
    7.5990   -1.5960   -4.2370 H   0  0  0  0  0
    8.7750   -0.8260   -2.2190 H   0  0  0  0  0
    7.3070    0.1880   -1.2230 H   0  0  0  0  0
    7.7990    1.5970   -0.2530 H   0  0  0  0  0
    5.8850   -1.3460    0.7880 H   0  0  0  0  0
    5.1840   -0.8870   -0.7830 H   0  0  0  0  0
    3.3950   -1.4200    0.8340 H   0  0  0  0  0
    4.0370   -0.2020    1.9620 H   0  0  0  0  0
    3.9550    2.1640    1.3380 H   0  0  0  0  0
    3.2550    2.6240   -0.2330 H   0  0  0  0  0
    5.1030    1.4790   -1.4070 H   0  0  0  0  0
    5.7450    2.6980   -0.2800 H   0  0  0  0  0
    1.2770    2.2480   -0.5860 H   0  0  0  0  0
   -0.0830   -0.7380    3.1120 H   0  0  0  0  0
    2.1690   -0.8930    2.1810 H   0  0  0  0  0
   -5.2980    1.7250    1.9490 H   0  0  0  0  0
   -6.5940   -3.0060    1.4690 H   0  0  0  0  0
   -8.5280   -3.1800    0.4280 H   0  0  0  0  0
   -7.1560   -3.3890   -0.6860 H   0  0  0  0  0
   10.7280   -0.4680    0.5590 H   0  0  0  0  0
   11.8530   -0.6880    1.9210 H   0  0  0  0  0
   11.6960   -1.9560    0.6820 H   0  0  0  0  0
    8.3920   -1.2240    3.3010 H   0  0  0  0  0
    9.9170   -0.3530    3.6120 H   0  0  0  0  0
    8.1500    0.9920    2.3590 H   0  0  0  0  0
    9.7260    0.8790    1.5450 H   0  0  0  0  0
   -5.0400   -2.3280    3.2530 H   0  0  0  0  0
   -8.5980   -2.5040   -2.5460 H   0  0  0  0  0
   -8.3800   -4.9350   -2.2110 H   0  0  0  0  0
   -9.6900   -4.9040   -1.0050 H   0  0  0  0  0
   -9.9370   -4.1460   -3.9520 H   0  0  0  0  0
  -10.5700   -5.6270   -3.1930 H   0  0  0  0  0
  -12.3000   -2.0150   -2.2000 H   0  0  0  0  0
  -10.9560   -2.0190   -3.3680 H   0  0  0  0  0
  -10.7580   -2.6760   -0.3920 H   0  0  0  0  0
  -10.1750   -1.1890   -1.1810 H   0  0  0  0  0
   -1.0950    1.7000   -2.2230 H   0  0  0  0  0
   -0.4130    5.1220    0.2490 H   0  0  0  0  0
    0.5470    7.4890   -1.4070 H   0  0  0  0  0
    0.9760    7.6770   -3.9710 H   0  0  0  0  0
   11.3400   -2.3540    3.7110 H   0  0  0  0  0
    9.8560   -3.3320    3.6170 H   0  0  0  0  0
   11.1910   -3.6290    2.4780 H   0  0  0  0  0
    9.6320   -3.2000    0.4360 H   0  0  0  0  0
    8.3890   -3.1790    1.7070 H   0  0  0  0  0
    6.2400   -3.3120    0.1850 H   0  0  0  0  0
    5.0820   -4.0780   -1.8450 H   0  0  0  0  0
   -1.7980   -0.5260    3.7130 H   0  0  0  0  0
   -8.0830   -0.7300   -0.9040 H   0  0  0  0  0
    0.4380    5.4130   -5.0060 H   0  0  0  0  0
  1 22  1  0  0  0
  1 62  1  0  0  0
  2  1  2  0  0  0
  2 45  1  0  0  0
  2 63  1  0  0  0
  3 18  1  0  0  0
  3 64  1  0  0  0
  3 65  1  0  0  0
  4  5  1  0  0  0
  4 66  1  0  0  0
  4 67  1  0  0  0
  5 48  1  0  0  0
  5 68  1  0  0  0
  5 69  1  0  0  0
  6 48  1  0  0  0
  6 70  1  0  0  0
  6 71  1  0  0  0
  7  6  1  0  0  0
  7 72  1  0  0  0
  7 73  1  0  0  0
  8  9  2  0  0  0
  8 74  1  0  0  0
  9 59  1  0  0  0
  9 25  1  0  0  0
 10 25  2  0  0  0
 10 75  1  0  0  0
 11 10  1  0  0  0
 11 76  1  0  0  0
 12 20  2  0  0  0
 12 49  1  0  0  0
 13 28  2  0  0  0
 13 14  1  0  0  0
 14 26  2  0  0  0
 14 77  1  0  0  0
 15 50  1  0  0  0
 16 15  2  0  0  0
 16 78  1  0  0  0
 17 29  1  0  0  0
 17 79  1  0  0  0
 17 80  1  0  0  0
 18  7  1  0  0  0
 18  4  1  0  0  0
 19 21  1  0  0  0
 19 81  1  0  0  0
 19 82  1  0  0  0
 19 83  1  0  0  0
 21 44  1  0  0  0
 21 42  1  0  0  0
 22 61  1  0  0  0
 22 47  2  0  0  0
 23 11  2  0  0  0
 23  8  1  0  0  0
 24 21  1  0  0  0
 24 27  1  0  0  0
 24 84  1  0  0  0
 24 85  1  0  0  0
 25 12  1  0  0  0
 26 15  1  0  0  0
 26 51  1  0  0  0
 27 37  1  0  0  0
 27 86  1  0  0  0
 27 87  1  0  0  0
 28 16  1  0  0  0
 28 88  1  0  0  0
 29 30  1  0  0  0
 29 89  1  0  0  0
 30 31  1  0  0  0
 30 90  1  0  0  0
 30 91  1  0  0  0
 31 92  1  0  0  0
 31 93  1  0  0  0
 32 56  1  0  0  0
 32 94  1  0  0  0
 32 95  1  0  0  0
 33 29  1  0  0  0
 33 32  1  0  0  0
 33 96  1  0  0  0
 33 97  1  0  0  0
 34 39  2  0  0  0
 34 35  1  0  0  0
 35 52  2  0  0  0
 35 98  1  0  0  0
 36 53  1  0  0  0
 37  3  1  0  0  0
 38 36  2  0  0  0
 38 40  1  0  0  0
 39 38  1  0  0  0
 39 99  1  0  0  0
 40 41  2  0  0  0
 40100  1  0  0  0
 41101  1  0  0  0
 42102  1  0  0  0
 42103  1  0  0  0
 42104  1  0  0  0
 43 37  2  0  0  0
 43 45  1  0  0  0
 44 43  1  0  0  0
 44105  1  0  0  0
 44106  1  0  0  0
 45 46  2  0  0  0
 46 47  1  0  0  0
 46107  1  0  0  0
 47108  1  0  0  0
 48 23  1  0  0  0
 49 60  1  0  0  0
 49109  1  0  0  0
 50 17  1  0  0  0
 50110  1  0  0  0
 51 57  1  0  0  0
 52 36  1  0  0  0
 53 41  1  0  0  0
 53111  1  0  0  0
 56 31  1  0  0  0
 58 51  2  0  0  0
 59 34  1  0  0  0
 60 54  2  0  0  0
 60 55  2  0  0  0
 60 13  1  0  0  0
M  CHG  1  51   1
M  CHG  1  57  -1
M  END
>  <2P2IDB_ID>
10101-0012

>  <Family>
BCL2

>  <UniProt>
P10415

>  <Class>
1

>  <Target>
BCL2

>  <SuperFamily>
BCL

>  <SuperFamily_ID>
101

>  <Target_ID>
10101

>  <Source>
Homo sapiens

>  <ExpData>
X-RAY DIFFRACTION

>  <PDBProtProt>
2XA0

>  <InstanceId>
6O0K_LBM

>  <PDBProtLig>
6O0K

>  <Ligand>
LBM

>  <ChainId>
A

>  <ResidueNumber>
301

>  <Atoms>
109

>  <HeavyAtoms>
59

>  <MissingHeavyAtoms>
0

>  <MolecularWeight>
868.439

>  <ObservedFormula>
C45 Cl N7 O7 S

>  <Formula>
C45 H50 Cl N7 O7 S

>  <Type>
non-polymer

>  <Covalent>
na

>  <Deposition_Date>
2019-02-16

>  <Modified_Date>
2019-12-11

>  <2P2IDB_Date>
2022-05-01

>  <InChIKey>
LQBVNQSMGBZMKD-UHFFFAOYSA-N

>  <SMILES>
c1cc(C2=C(CN3CCN(CC3)c3cc(c(cc3)C(=O)NS(=O)(=O)c3cc(c(cc3)NCC3CCOCC3)[N+](=O)[O-])Oc3cnc4c(c3)cc[nH]4)CCC(C)(C)C2)ccc1Cl

>  <SDF>
6O0K_LBM_A_301

$$$$
LBM
  CCTOOLS-0506221803

111118  0  0  0  0  0  0  0  0999 V2000
    7.3080   -1.9710   -3.2670 C   0  0  0  0  0
    7.9660   -1.5370   -2.1350 C   0  0  0  0  0
    7.3500    0.6050   -0.2170 C   0  0  0  0  0
    5.3000   -0.5930    0.2600 C   0  0  0  0  0
    3.9210   -0.4680    0.9110 C   0  0  0  0  0
    3.8400    1.8700    0.2940 C   0  0  0  0  0
    5.2190    1.7460   -0.3570 C   0  0  0  0  0
    0.9710    1.6000    0.2220 C   0  0  0  0  0
   -0.3090    1.6920    0.7390 C   0  0  0  0  0
    0.2120   -0.0850    2.3040 C   0  0  0  0  0
    1.4700   -0.1750    1.7800 C   0  0  0  0  0
   -2.0570    0.9340    2.3470 C   0  0  0  0  0
   -5.0750   -0.2610    2.7080 C   0  0  0  0  0
   -5.5830    0.6890    1.8410 C   0  0  0  0  0
   -6.8230   -1.0180    0.7010 C   0  0  0  0  0
   -6.3110   -1.9690    1.5730 C   0  0  0  0  0
   -8.0580   -2.8110   -0.4830 C   0  0  0  0  0
    5.9910    0.7020    0.3310 N   0  0  0  0  0
   11.1610   -1.1940    1.2470 C   0  0  0  0  0
   -2.8470    1.7430    1.8970 O   0  0  0  0  0
   10.0470   -1.8520    2.0630 C   0  0  0  0  0
    6.2710   -2.8820   -3.1620 C   0  0  0  0  0
    1.8620    0.6680    0.7420 C   0  0  0  0  0
    9.2750   -0.7800    2.8410 C   0  0  0  0  0
   -0.6970    0.8440    1.7890 C   0  0  0  0  0
   -6.4560    0.3150    0.8380 C   0  0  0  0  0
    8.8480    0.3170    1.8630 C   0  0  0  0  0
   -5.4380   -1.5880    2.5740 C   0  0  0  0  0
   -9.0310   -2.9560   -1.6540 C   0  0  0  0  0
   -9.3050   -4.4400   -1.9130 C   0  0  0  0  0
  -10.3390   -4.5730   -3.0330 C   0  0  0  0  0
  -11.3450   -2.4740   -2.4560 C   0  0  0  0  0
  -10.3510   -2.2570   -1.3130 C   0  0  0  0  0
   -0.8020    3.3160   -0.8550 C   0  0  0  0  0
   -0.7970    2.7320   -2.1180 C   0  0  0  0  0
   -0.0590    4.6790   -3.1150 C   0  0  0  0  0
    8.1830   -0.2910    0.6630 C   0  0  0  0  0
   -0.0400    5.3360   -1.8700 C   0  0  0  0  0
   -0.4180    4.6410   -0.7190 C   0  0  0  0  0
    0.4140    6.7020   -2.1350 C   0  0  0  0  0
    0.6320    6.7910   -3.4570 C   0  0  0  0  0
   10.6520   -2.8650    3.0370 C   0  0  0  0  0
    8.2860   -1.5560    0.3350 C   0  0  0  0  0
    9.0720   -2.5640    1.1220 C   0  0  0  0  0
    7.5850   -2.0180   -0.8820 C   0  0  0  0  0
    6.5390   -2.9360   -0.7820 C   0  0  0  0  0
    5.8920   -3.3680   -1.9210 C   0  0  0  0  0
    3.1490    0.5760    0.2230 N   0  0  0  0  0
   -2.4270    0.1190    3.3550 N   0  0  0  0  0
   -7.7050   -1.4000   -0.3130 N   0  0  0  0  0
   -6.9990    1.3330   -0.0890 N   0  3  0  0  0
   -0.4360    3.4090   -3.1870 N   0  0  0  0  0
    0.3550    5.5920   -4.0570 N   0  0  0  0  0
   -4.1990    1.5980    4.2290 O   0  0  0  0  0
   -4.0430   -0.7780    4.9900 O   0  0  0  0  0
  -11.5310   -3.8750   -2.6650 O   0  0  0  0  0
   -7.1400    1.0680   -1.2690 O   0  5  0  0  0
   -7.3060    2.4350    0.3290 O   0  0  0  0  0
   -1.1850    2.5960    0.2330 O   0  0  0  0  0
   -3.9570    0.2200    3.9820 S   0  0  0  0  0
    5.4420   -3.4180   -4.5900 CL  0  0  0  0  0
    7.5990   -1.5960   -4.2370 H   0  0  0  0  0
    8.7750   -0.8260   -2.2190 H   0  0  0  0  0
    7.3070    0.1880   -1.2230 H   0  0  0  0  0
    7.7990    1.5970   -0.2530 H   0  0  0  0  0
    5.8850   -1.3460    0.7880 H   0  0  0  0  0
    5.1840   -0.8870   -0.7830 H   0  0  0  0  0
    3.3950   -1.4200    0.8340 H   0  0  0  0  0
    4.0370   -0.2020    1.9620 H   0  0  0  0  0
    3.9550    2.1640    1.3380 H   0  0  0  0  0
    3.2550    2.6240   -0.2330 H   0  0  0  0  0
    5.1030    1.4790   -1.4070 H   0  0  0  0  0
    5.7450    2.6980   -0.2800 H   0  0  0  0  0
    1.2770    2.2480   -0.5860 H   0  0  0  0  0
   -0.0830   -0.7380    3.1120 H   0  0  0  0  0
    2.1690   -0.8930    2.1810 H   0  0  0  0  0
   -5.2980    1.7250    1.9490 H   0  0  0  0  0
   -6.5940   -3.0060    1.4690 H   0  0  0  0  0
   -8.5280   -3.1800    0.4280 H   0  0  0  0  0
   -7.1560   -3.3890   -0.6860 H   0  0  0  0  0
   10.7280   -0.4680    0.5590 H   0  0  0  0  0
   11.8530   -0.6880    1.9210 H   0  0  0  0  0
   11.6960   -1.9560    0.6820 H   0  0  0  0  0
    8.3920   -1.2240    3.3010 H   0  0  0  0  0
    9.9170   -0.3530    3.6120 H   0  0  0  0  0
    8.1500    0.9920    2.3590 H   0  0  0  0  0
    9.7260    0.8790    1.5450 H   0  0  0  0  0
   -5.0400   -2.3280    3.2530 H   0  0  0  0  0
   -8.5980   -2.5040   -2.5460 H   0  0  0  0  0
   -8.3800   -4.9350   -2.2110 H   0  0  0  0  0
   -9.6900   -4.9040   -1.0050 H   0  0  0  0  0
   -9.9370   -4.1460   -3.9520 H   0  0  0  0  0
  -10.5700   -5.6270   -3.1930 H   0  0  0  0  0
  -12.3000   -2.0150   -2.2000 H   0  0  0  0  0
  -10.9560   -2.0190   -3.3680 H   0  0  0  0  0
  -10.7580   -2.6760   -0.3920 H   0  0  0  0  0
  -10.1750   -1.1890   -1.1810 H   0  0  0  0  0
   -1.0950    1.7000   -2.2230 H   0  0  0  0  0
   -0.4130    5.1220    0.2490 H   0  0  0  0  0
    0.5470    7.4890   -1.4070 H   0  0  0  0  0
    0.9760    7.6770   -3.9710 H   0  0  0  0  0
   11.3400   -2.3540    3.7110 H   0  0  0  0  0
    9.8560   -3.3320    3.6170 H   0  0  0  0  0
   11.1910   -3.6290    2.4780 H   0  0  0  0  0
    9.6320   -3.2000    0.4360 H   0  0  0  0  0
    8.3890   -3.1790    1.7070 H   0  0  0  0  0
    6.2400   -3.3120    0.1850 H   0  0  0  0  0
    5.0820   -4.0780   -1.8450 H   0  0  0  0  0
   -1.7980   -0.5260    3.7130 H   0  0  0  0  0
   -8.0830   -0.7300   -0.9040 H   0  0  0  0  0
    0.4380    5.4130   -5.0060 H   0  0  0  0  0
  1 22  1  0  0  0
  1 62  1  0  0  0
  2  1  2  0  0  0
  2 45  1  0  0  0
  2 63  1  0  0  0
  3 18  1  0  0  0
  3 64  1  0  0  0
  3 65  1  0  0  0
  4  5  1  0  0  0
  4 66  1  0  0  0
  4 67  1  0  0  0
  5 48  1  0  0  0
  5 68  1  0  0  0
  5 69  1  0  0  0
  6 48  1  0  0  0
  6 70  1  0  0  0
  6 71  1  0  0  0
  7  6  1  0  0  0
  7 72  1  0  0  0
  7 73  1  0  0  0
  8  9  2  0  0  0
  8 74  1  0  0  0
  9 59  1  0  0  0
  9 25  1  0  0  0
 10 25  2  0  0  0
 10 75  1  0  0  0
 11 10  1  0  0  0
 11 76  1  0  0  0
 12 20  2  0  0  0
 12 49  1  0  0  0
 13 28  2  0  0  0
 13 14  1  0  0  0
 14 26  2  0  0  0
 14 77  1  0  0  0
 15 50  1  0  0  0
 16 15  2  0  0  0
 16 78  1  0  0  0
 17 29  1  0  0  0
 17 79  1  0  0  0
 17 80  1  0  0  0
 18  7  1  0  0  0
 18  4  1  0  0  0
 19 21  1  0  0  0
 19 81  1  0  0  0
 19 82  1  0  0  0
 19 83  1  0  0  0
 21 44  1  0  0  0
 21 42  1  0  0  0
 22 61  1  0  0  0
 22 47  2  0  0  0
 23 11  2  0  0  0
 23  8  1  0  0  0
 24 21  1  0  0  0
 24 27  1  0  0  0
 24 84  1  0  0  0
 24 85  1  0  0  0
 25 12  1  0  0  0
 26 15  1  0  0  0
 26 51  1  0  0  0
 27 37  1  0  0  0
 27 86  1  0  0  0
 27 87  1  0  0  0
 28 16  1  0  0  0
 28 88  1  0  0  0
 29 30  1  0  0  0
 29 89  1  0  0  0
 30 31  1  0  0  0
 30 90  1  0  0  0
 30 91  1  0  0  0
 31 92  1  0  0  0
 31 93  1  0  0  0
 32 56  1  0  0  0
 32 94  1  0  0  0
 32 95  1  0  0  0
 33 29  1  0  0  0
 33 32  1  0  0  0
 33 96  1  0  0  0
 33 97  1  0  0  0
 34 39  2  0  0  0
 34 35  1  0  0  0
 35 52  2  0  0  0
 35 98  1  0  0  0
 36 53  1  0  0  0
 37  3  1  0  0  0
 38 36  2  0  0  0
 38 40  1  0  0  0
 39 38  1  0  0  0
 39 99  1  0  0  0
 40 41  2  0  0  0
 40100  1  0  0  0
 41101  1  0  0  0
 42102  1  0  0  0
 42103  1  0  0  0
 42104  1  0  0  0
 43 37  2  0  0  0
 43 45  1  0  0  0
 44 43  1  0  0  0
 44105  1  0  0  0
 44106  1  0  0  0
 45 46  2  0  0  0
 46 47  1  0  0  0
 46107  1  0  0  0
 47108  1  0  0  0
 48 23  1  0  0  0
 49 60  1  0  0  0
 49109  1  0  0  0
 50 17  1  0  0  0
 50110  1  0  0  0
 51 57  1  0  0  0
 52 36  1  0  0  0
 53 41  1  0  0  0
 53111  1  0  0  0
 56 31  1  0  0  0
 58 51  2  0  0  0
 59 34  1  0  0  0
 60 54  2  0  0  0
 60 55  2  0  0  0
 60 13  1  0  0  0
M  CHG  1  51   1
M  CHG  1  57  -1
M  END
>  <2P2IDB_ID>
10101-0013

>  <Family>
BCL2

>  <UniProt>
P10415

>  <Class>
1

>  <Target>
BCL2

>  <SuperFamily>
BCL

>  <SuperFamily_ID>
101

>  <Target_ID>
10101

>  <Source>
Homo sapiens

>  <ExpData>
X-RAY DIFFRACTION

>  <PDBProtProt>
2XA0

>  <InstanceId>
6O0L_LBM

>  <PDBProtLig>
6O0L

>  <Ligand>
LBM

>  <ChainId>
A

>  <ResidueNumber>
301

>  <Atoms>
109

>  <HeavyAtoms>
59

>  <MissingHeavyAtoms>
0

>  <MolecularWeight>
868.439

>  <ObservedFormula>
C45 Cl N7 O7 S

>  <Formula>
C45 H50 Cl N7 O7 S

>  <Type>
non-polymer

>  <Covalent>
na

>  <Deposition_Date>
2019-02-16

>  <Modified_Date>
2019-12-11

>  <2P2IDB_Date>
2022-05-01

>  <InChIKey>
LQBVNQSMGBZMKD-UHFFFAOYSA-N

>  <SMILES>
c1cc(C2=C(CN3CCN(CC3)c3cc(c(cc3)C(=O)NS(=O)(=O)c3cc(c(cc3)NCC3CCOCC3)[N+](=O)[O-])Oc3cnc4c(c3)cc[nH]4)CCC(C)(C)C2)ccc1Cl

>  <SDF>
6O0L_LBM_A_301

$$$$
LBM
  CCTOOLS-0506221803

111118  0  0  0  0  0  0  0  0999 V2000
    7.3080   -1.9710   -3.2670 C   0  0  0  0  0
    7.9660   -1.5370   -2.1350 C   0  0  0  0  0
    7.3500    0.6050   -0.2170 C   0  0  0  0  0
    5.3000   -0.5930    0.2600 C   0  0  0  0  0
    3.9210   -0.4680    0.9110 C   0  0  0  0  0
    3.8400    1.8700    0.2940 C   0  0  0  0  0
    5.2190    1.7460   -0.3570 C   0  0  0  0  0
    0.9710    1.6000    0.2220 C   0  0  0  0  0
   -0.3090    1.6920    0.7390 C   0  0  0  0  0
    0.2120   -0.0850    2.3040 C   0  0  0  0  0
    1.4700   -0.1750    1.7800 C   0  0  0  0  0
   -2.0570    0.9340    2.3470 C   0  0  0  0  0
   -5.0750   -0.2610    2.7080 C   0  0  0  0  0
   -5.5830    0.6890    1.8410 C   0  0  0  0  0
   -6.8230   -1.0180    0.7010 C   0  0  0  0  0
   -6.3110   -1.9690    1.5730 C   0  0  0  0  0
   -8.0580   -2.8110   -0.4830 C   0  0  0  0  0
    5.9910    0.7020    0.3310 N   0  0  0  0  0
   11.1610   -1.1940    1.2470 C   0  0  0  0  0
   -2.8470    1.7430    1.8970 O   0  0  0  0  0
   10.0470   -1.8520    2.0630 C   0  0  0  0  0
    6.2710   -2.8820   -3.1620 C   0  0  0  0  0
    1.8620    0.6680    0.7420 C   0  0  0  0  0
    9.2750   -0.7800    2.8410 C   0  0  0  0  0
   -0.6970    0.8440    1.7890 C   0  0  0  0  0
   -6.4560    0.3150    0.8380 C   0  0  0  0  0
    8.8480    0.3170    1.8630 C   0  0  0  0  0
   -5.4380   -1.5880    2.5740 C   0  0  0  0  0
   -9.0310   -2.9560   -1.6540 C   0  0  0  0  0
   -9.3050   -4.4400   -1.9130 C   0  0  0  0  0
  -10.3390   -4.5730   -3.0330 C   0  0  0  0  0
  -11.3450   -2.4740   -2.4560 C   0  0  0  0  0
  -10.3510   -2.2570   -1.3130 C   0  0  0  0  0
   -0.8020    3.3160   -0.8550 C   0  0  0  0  0
   -0.7970    2.7320   -2.1180 C   0  0  0  0  0
   -0.0590    4.6790   -3.1150 C   0  0  0  0  0
    8.1830   -0.2910    0.6630 C   0  0  0  0  0
   -0.0400    5.3360   -1.8700 C   0  0  0  0  0
   -0.4180    4.6410   -0.7190 C   0  0  0  0  0
    0.4140    6.7020   -2.1350 C   0  0  0  0  0
    0.6320    6.7910   -3.4570 C   0  0  0  0  0
   10.6520   -2.8650    3.0370 C   0  0  0  0  0
    8.2860   -1.5560    0.3350 C   0  0  0  0  0
    9.0720   -2.5640    1.1220 C   0  0  0  0  0
    7.5850   -2.0180   -0.8820 C   0  0  0  0  0
    6.5390   -2.9360   -0.7820 C   0  0  0  0  0
    5.8920   -3.3680   -1.9210 C   0  0  0  0  0
    3.1490    0.5760    0.2230 N   0  0  0  0  0
   -2.4270    0.1190    3.3550 N   0  0  0  0  0
   -7.7050   -1.4000   -0.3130 N   0  0  0  0  0
   -6.9990    1.3330   -0.0890 N   0  3  0  0  0
   -0.4360    3.4090   -3.1870 N   0  0  0  0  0
    0.3550    5.5920   -4.0570 N   0  0  0  0  0
   -4.1990    1.5980    4.2290 O   0  0  0  0  0
   -4.0430   -0.7780    4.9900 O   0  0  0  0  0
  -11.5310   -3.8750   -2.6650 O   0  0  0  0  0
   -7.1400    1.0680   -1.2690 O   0  5  0  0  0
   -7.3060    2.4350    0.3290 O   0  0  0  0  0
   -1.1850    2.5960    0.2330 O   0  0  0  0  0
   -3.9570    0.2200    3.9820 S   0  0  0  0  0
    5.4420   -3.4180   -4.5900 CL  0  0  0  0  0
    7.5990   -1.5960   -4.2370 H   0  0  0  0  0
    8.7750   -0.8260   -2.2190 H   0  0  0  0  0
    7.3070    0.1880   -1.2230 H   0  0  0  0  0
    7.7990    1.5970   -0.2530 H   0  0  0  0  0
    5.8850   -1.3460    0.7880 H   0  0  0  0  0
    5.1840   -0.8870   -0.7830 H   0  0  0  0  0
    3.3950   -1.4200    0.8340 H   0  0  0  0  0
    4.0370   -0.2020    1.9620 H   0  0  0  0  0
    3.9550    2.1640    1.3380 H   0  0  0  0  0
    3.2550    2.6240   -0.2330 H   0  0  0  0  0
    5.1030    1.4790   -1.4070 H   0  0  0  0  0
    5.7450    2.6980   -0.2800 H   0  0  0  0  0
    1.2770    2.2480   -0.5860 H   0  0  0  0  0
   -0.0830   -0.7380    3.1120 H   0  0  0  0  0
    2.1690   -0.8930    2.1810 H   0  0  0  0  0
   -5.2980    1.7250    1.9490 H   0  0  0  0  0
   -6.5940   -3.0060    1.4690 H   0  0  0  0  0
   -8.5280   -3.1800    0.4280 H   0  0  0  0  0
   -7.1560   -3.3890   -0.6860 H   0  0  0  0  0
   10.7280   -0.4680    0.5590 H   0  0  0  0  0
   11.8530   -0.6880    1.9210 H   0  0  0  0  0
   11.6960   -1.9560    0.6820 H   0  0  0  0  0
    8.3920   -1.2240    3.3010 H   0  0  0  0  0
    9.9170   -0.3530    3.6120 H   0  0  0  0  0
    8.1500    0.9920    2.3590 H   0  0  0  0  0
    9.7260    0.8790    1.5450 H   0  0  0  0  0
   -5.0400   -2.3280    3.2530 H   0  0  0  0  0
   -8.5980   -2.5040   -2.5460 H   0  0  0  0  0
   -8.3800   -4.9350   -2.2110 H   0  0  0  0  0
   -9.6900   -4.9040   -1.0050 H   0  0  0  0  0
   -9.9370   -4.1460   -3.9520 H   0  0  0  0  0
  -10.5700   -5.6270   -3.1930 H   0  0  0  0  0
  -12.3000   -2.0150   -2.2000 H   0  0  0  0  0
  -10.9560   -2.0190   -3.3680 H   0  0  0  0  0
  -10.7580   -2.6760   -0.3920 H   0  0  0  0  0
  -10.1750   -1.1890   -1.1810 H   0  0  0  0  0
   -1.0950    1.7000   -2.2230 H   0  0  0  0  0
   -0.4130    5.1220    0.2490 H   0  0  0  0  0
    0.5470    7.4890   -1.4070 H   0  0  0  0  0
    0.9760    7.6770   -3.9710 H   0  0  0  0  0
   11.3400   -2.3540    3.7110 H   0  0  0  0  0
    9.8560   -3.3320    3.6170 H   0  0  0  0  0
   11.1910   -3.6290    2.4780 H   0  0  0  0  0
    9.6320   -3.2000    0.4360 H   0  0  0  0  0
    8.3890   -3.1790    1.7070 H   0  0  0  0  0
    6.2400   -3.3120    0.1850 H   0  0  0  0  0
    5.0820   -4.0780   -1.8450 H   0  0  0  0  0
   -1.7980   -0.5260    3.7130 H   0  0  0  0  0
   -8.0830   -0.7300   -0.9040 H   0  0  0  0  0
    0.4380    5.4130   -5.0060 H   0  0  0  0  0
  1 22  1  0  0  0
  1 62  1  0  0  0
  2  1  2  0  0  0
  2 45  1  0  0  0
  2 63  1  0  0  0
  3 18  1  0  0  0
  3 64  1  0  0  0
  3 65  1  0  0  0
  4  5  1  0  0  0
  4 66  1  0  0  0
  4 67  1  0  0  0
  5 48  1  0  0  0
  5 68  1  0  0  0
  5 69  1  0  0  0
  6 48  1  0  0  0
  6 70  1  0  0  0
  6 71  1  0  0  0
  7  6  1  0  0  0
  7 72  1  0  0  0
  7 73  1  0  0  0
  8  9  2  0  0  0
  8 74  1  0  0  0
  9 59  1  0  0  0
  9 25  1  0  0  0
 10 25  2  0  0  0
 10 75  1  0  0  0
 11 10  1  0  0  0
 11 76  1  0  0  0
 12 20  2  0  0  0
 12 49  1  0  0  0
 13 28  2  0  0  0
 13 14  1  0  0  0
 14 26  2  0  0  0
 14 77  1  0  0  0
 15 50  1  0  0  0
 16 15  2  0  0  0
 16 78  1  0  0  0
 17 29  1  0  0  0
 17 79  1  0  0  0
 17 80  1  0  0  0
 18  7  1  0  0  0
 18  4  1  0  0  0
 19 21  1  0  0  0
 19 81  1  0  0  0
 19 82  1  0  0  0
 19 83  1  0  0  0
 21 44  1  0  0  0
 21 42  1  0  0  0
 22 61  1  0  0  0
 22 47  2  0  0  0
 23 11  2  0  0  0
 23  8  1  0  0  0
 24 21  1  0  0  0
 24 27  1  0  0  0
 24 84  1  0  0  0
 24 85  1  0  0  0
 25 12  1  0  0  0
 26 15  1  0  0  0
 26 51  1  0  0  0
 27 37  1  0  0  0
 27 86  1  0  0  0
 27 87  1  0  0  0
 28 16  1  0  0  0
 28 88  1  0  0  0
 29 30  1  0  0  0
 29 89  1  0  0  0
 30 31  1  0  0  0
 30 90  1  0  0  0
 30 91  1  0  0  0
 31 92  1  0  0  0
 31 93  1  0  0  0
 32 56  1  0  0  0
 32 94  1  0  0  0
 32 95  1  0  0  0
 33 29  1  0  0  0
 33 32  1  0  0  0
 33 96  1  0  0  0
 33 97  1  0  0  0
 34 39  2  0  0  0
 34 35  1  0  0  0
 35 52  2  0  0  0
 35 98  1  0  0  0
 36 53  1  0  0  0
 37  3  1  0  0  0
 38 36  2  0  0  0
 38 40  1  0  0  0
 39 38  1  0  0  0
 39 99  1  0  0  0
 40 41  2  0  0  0
 40100  1  0  0  0
 41101  1  0  0  0
 42102  1  0  0  0
 42103  1  0  0  0
 42104  1  0  0  0
 43 37  2  0  0  0
 43 45  1  0  0  0
 44 43  1  0  0  0
 44105  1  0  0  0
 44106  1  0  0  0
 45 46  2  0  0  0
 46 47  1  0  0  0
 46107  1  0  0  0
 47108  1  0  0  0
 48 23  1  0  0  0
 49 60  1  0  0  0
 49109  1  0  0  0
 50 17  1  0  0  0
 50110  1  0  0  0
 51 57  1  0  0  0
 52 36  1  0  0  0
 53 41  1  0  0  0
 53111  1  0  0  0
 56 31  1  0  0  0
 58 51  2  0  0  0
 59 34  1  0  0  0
 60 54  2  0  0  0
 60 55  2  0  0  0
 60 13  1  0  0  0
M  CHG  1  51   1
M  CHG  1  57  -1
M  END
>  <2P2IDB_ID>
10101-0014

>  <Family>
BCL2

>  <UniProt>
P10415

>  <Class>
1

>  <Target>
BCL2

>  <SuperFamily>
BCL

>  <SuperFamily_ID>
101

>  <Target_ID>
10101

>  <Source>
Homo sapiens

>  <ExpData>
X-RAY DIFFRACTION

>  <PDBProtProt>
2XA0

>  <InstanceId>
6O0M_LBM

>  <PDBProtLig>
6O0M

>  <Ligand>
LBM

>  <ChainId>
A

>  <ResidueNumber>
301

>  <Atoms>
109

>  <HeavyAtoms>
59

>  <MissingHeavyAtoms>
0

>  <MolecularWeight>
868.439

>  <ObservedFormula>
C45 Cl N7 O7 S

>  <Formula>
C45 H50 Cl N7 O7 S

>  <Type>
non-polymer

>  <Covalent>
na

>  <Deposition_Date>
2019-02-16

>  <Modified_Date>
2019-12-11

>  <2P2IDB_Date>
2022-05-01

>  <InChIKey>
LQBVNQSMGBZMKD-UHFFFAOYSA-N

>  <SMILES>
c1cc(C2=C(CN3CCN(CC3)c3cc(c(cc3)C(=O)NS(=O)(=O)c3cc(c(cc3)NCC3CCOCC3)[N+](=O)[O-])Oc3cnc4c(c3)cc[nH]4)CCC(C)(C)C2)ccc1Cl

>  <SDF>
6O0M_LBM_A_301

$$$$
F3Q
  CCTOOLS-0506221811

 95103  0  0  1  0  0  0  0  0999 V2000
   -1.3900   -4.6030    0.4500 C   0  0  0  0  0
   -0.4810   -5.7500   -0.0130 C   0  0  0  0  0
    1.5000   -4.2750   -0.4150 C   0  0  0  0  0
    0.9600   -5.4490    0.4090 C   0  0  0  0  0
   -0.7520   -3.2990    0.0360 C   0  0  0  0  0
    0.5370   -3.1660   -0.3480 N   0  0  0  0  0
    0.7800   -1.8510   -0.6560 C   0  0  0  0  0
   -0.3660   -1.1440   -0.4640 C   0  0  0  0  0
   -1.3530   -2.0630   -0.0210 C   0  0  0  0  0
   -2.7530   -1.7530    0.3140 C   0  0  0  0  0
   -3.3130   -2.3560    1.2100 O   0  0  0  0  0
   -3.4150   -0.8010   -0.3730 N   0  0  0  0  0
    2.0680   -1.2970   -1.1180 C   0  0  0  0  0
    2.7490   -1.8960   -2.1760 C   0  0  0  0  0
    2.6130   -0.1560   -0.4950 C   0  0  0  0  0
    4.4990   -0.2470   -1.9860 C   0  0  0  0  0
    3.9570   -1.3760   -2.6080 C   0  0  0  0  0
    4.8040   -1.7750   -3.5990 O   0  0  0  0  0
    6.0620   -1.1360   -3.3120 C   0  0  0  0  0
    5.6860    0.0530   -2.5920 O   0  0  0  0  0
    1.9000    0.4890    0.6210 C   0  0  0  0  0
    1.7730    1.8300    0.6540 N   0  0  0  0  0
    1.4260   -0.1890    1.5130 O   0  0  0  0  0
    1.1810    2.5150    1.8150 C   0  0  0  0  0
   -0.1090    3.1910    1.3540 C   0  0  0  0  0
    2.2250    2.6670   -0.4630 C   0  0  0  0  0
    1.1820    3.7130   -0.7670 C   0  0  0  0  0
    0.1130    3.9550    0.0760 C   0  0  0  0  0
   -0.8090    4.9410   -0.2540 C   0  0  0  0  0
   -0.6710    5.6710   -1.4160 C   0  0  0  0  0
    0.3930    5.4220   -2.2610 C   0  0  0  0  0
    1.3220    4.4450   -1.9380 C   0  0  0  0  0
    0.8690    1.4970    2.9130 C   0  0  0  0  0
    3.8320    0.3590   -0.9400 C   0  0  0  0  0
    2.1120    0.8390    3.3390 N   0  0  0  0  0
    1.8270   -0.3250    4.1910 C   0  0  0  0  0
    3.1430   -1.0130    4.5620 C   0  0  0  0  0
    4.0040   -0.0690    5.2050 O   0  0  0  0  0
    4.3030    1.0770    4.4040 C   0  0  0  0  0
    2.9980    1.7860    4.0310 C   0  0  0  0  0
   -4.7040   -0.4190    0.0240 C   0  0  0  0  0
   -2.8160   -0.1940   -1.4820 C   0  0  0  0  0
   -5.2400   -0.9070    1.2080 C   0  0  0  0  0
   -6.5090   -0.5300    1.5990 C   0  0  0  0  0
   -7.2500    0.3360    0.8080 C   0  0  0  0  0
   -6.7150    0.8250   -0.3750 C   0  0  0  0  0
   -5.4440    0.4530   -0.7640 C   0  0  0  0  0
   -2.5010   -0.9510   -2.6040 C   0  0  0  0  0
   -1.9100   -0.3490   -3.6970 C   0  0  0  0  0
   -1.6320    1.0060   -3.6770 C   0  0  0  0  0
   -1.9440    1.7620   -2.5620 C   0  0  0  0  0
   -2.5400    1.1670   -1.4670 C   0  0  0  0  0
   -8.5000    0.7060    1.1920 O   0  0  0  0  0
   -2.3690   -4.6990   -0.0180 H   0  0  0  0  0
   -1.4960   -4.6330    1.5340 H   0  0  0  0  0
   -0.8080   -6.6820    0.4480 H   0  0  0  0  0
   -0.5340   -5.8410   -1.0970 H   0  0  0  0  0
    2.4570   -3.9530   -0.0060 H   0  0  0  0  0
    1.6290   -4.5850   -1.4520 H   0  0  0  0  0
    0.9830   -5.1900    1.4670 H   0  0  0  0  0
    1.5800   -6.3280    0.2360 H   0  0  0  0  0
   -0.4990   -0.0840   -0.6190 H   0  0  0  0  0
    2.3330   -2.7680   -2.6590 H   0  0  0  0  0
    6.6850   -1.7780   -2.6900 H   0  0  0  0  0
    1.8750    3.2660    2.1940 H   0  0  0  0  0
   -0.8730    2.4300    1.1890 H   0  0  0  0  0
   -0.4500    3.8780    2.1280 H   0  0  0  0  0
    3.1610    3.1560   -0.1940 H   0  0  0  0  0
    2.3820    2.0440   -1.3430 H   0  0  0  0  0
   -1.6420    5.1370    0.4060 H   0  0  0  0  0
   -1.3930    6.4350   -1.6650 H   0  0  0  0  0
    0.5050    5.9880   -3.1750 H   0  0  0  0  0
    2.1560    4.2500   -2.5950 H   0  0  0  0  0
    0.4180    2.0070    3.7640 H   0  0  0  0  0
    0.1760    0.7490    2.5290 H   0  0  0  0  0
    4.2550    1.2310   -0.4640 H   0  0  0  0  0
    1.3190    0.0040    5.0980 H   0  0  0  0  0
    1.1900   -1.0240    3.6500 H   0  0  0  0  0
    2.9410   -1.8420    5.2400 H   0  0  0  0  0
    3.6240   -1.3890    3.6590 H   0  0  0  0  0
    4.9400    1.7590    4.9670 H   0  0  0  0  0
    4.8190    0.7620    3.4960 H   0  0  0  0  0
    3.2170    2.6280    3.3730 H   0  0  0  0  0
    2.5100    2.1480    4.9350 H   0  0  0  0  0
   -4.6630   -1.5820    1.8240 H   0  0  0  0  0
   -6.9260   -0.9100    2.5200 H   0  0  0  0  0
   -7.2930    1.4990   -0.9910 H   0  0  0  0  0
   -5.0280    0.8340   -1.6850 H   0  0  0  0  0
   -2.7170   -2.0090   -2.6200 H   0  0  0  0  0
   -1.6640   -0.9370   -4.5690 H   0  0  0  0  0
   -1.1700    1.4740   -4.5330 H   0  0  0  0  0
   -1.7250    2.8190   -2.5480 H   0  0  0  0  0
   -2.7890    1.7590   -0.5980 H   0  0  0  0  0
   -8.5240    1.5020    1.7410 H   0  0  0  0  0
    6.5790   -0.8770   -4.2360 H   0  0  0  0  0
  1 54  1  0  0  0
  1 55  1  0  0  0
  2  1  1  0  0  0
  2 56  1  0  0  0
  2 57  1  0  0  0
  3  6  1  0  0  0
  3  4  1  0  0  0
  3 58  1  0  0  0
  3 59  1  0  0  0
  4  2  1  0  0  0
  4 60  1  0  0  0
  4 61  1  0  0  0
  5  9  2  0  0  0
  5  1  1  0  0  0
  6  5  1  0  0  0
  7  6  1  0  0  0
  7  8  2  0  0  0
  8  9  1  0  0  0
  8 62  1  0  0  0
  9 10  1  0  0  0
 10 12  1  0  0  0
 10 11  2  0  0  0
 12 42  1  0  0  0
 13  7  1  0  0  0
 14 13  2  0  0  0
 14 63  1  0  0  0
 15 13  1  0  0  0
 15 21  1  0  0  0
 16 17  2  0  0  0
 16 34  1  0  0  0
 17 14  1  0  0  0
 18 17  1  0  0  0
 19 20  1  0  0  0
 19 18  1  0  0  0
 19 64  1  0  0  0
 19 95  1  0  0  0
 20 16  1  0  0  0
 21 23  2  0  0  0
 21 22  1  0  0  0
 22 24  1  0  0  0
 24 25  1  0  0  0
 24 65  1  0  0  0
 25 66  1  0  0  0
 25 67  1  0  0  0
 26 22  1  0  0  0
 26 27  1  0  0  0
 26 68  1  0  0  0
 26 69  1  0  0  0
 27 28  1  0  0  0
 28 25  1  0  0  0
 28 29  2  0  0  0
 29 70  1  0  0  0
 30 29  1  0  0  0
 30 71  1  0  0  0
 31 30  2  0  0  0
 31 72  1  0  0  0
 32 27  2  0  0  0
 32 31  1  0  0  0
 32 73  1  0  0  0
 33 24  1  0  0  0
 33 35  1  0  0  0
 33 74  1  0  0  0
 33 75  1  0  0  0
 34 15  2  0  0  0
 34 76  1  0  0  0
 36 37  1  0  0  0
 36 35  1  0  0  0
 36 77  1  0  0  0
 36 78  1  0  0  0
 37 79  1  0  0  0
 37 80  1  0  0  0
 38 37  1  0  0  0
 38 39  1  0  0  0
 39 81  1  0  0  0
 39 82  1  0  0  0
 40 35  1  0  0  0
 40 39  1  0  0  0
 40 83  1  0  0  0
 40 84  1  0  0  0
 41 12  1  0  0  0
 42 48  2  0  0  0
 42 52  1  0  0  0
 43 41  2  0  0  0
 43 85  1  0  0  0
 44 43  1  0  0  0
 44 86  1  0  0  0
 45 44  2  0  0  0
 45 46  1  0  0  0
 46 47  2  0  0  0
 46 87  1  0  0  0
 47 41  1  0  0  0
 47 88  1  0  0  0
 48 49  1  0  0  0
 48 89  1  0  0  0
 49 50  2  0  0  0
 49 90  1  0  0  0
 50 91  1  0  0  0
 51 50  1  0  0  0
 51 92  1  0  0  0
 52 51  2  0  0  0
 52 93  1  0  0  0
 53 45  1  0  0  0
 53 94  1  0  0  0
M  END
>  <2P2IDB_ID>
10101-0015

>  <Family>
BCL2

>  <UniProt>
P10415

>  <Class>
1

>  <Target>
BCL2

>  <SuperFamily>
BCL

>  <SuperFamily_ID>
101

>  <Target_ID>
10101

>  <Source>
Homo sapiens

>  <ExpData>
X-RAY DIFFRACTION

>  <PDBProtProt>
2XA0

>  <InstanceId>
6O0O_F3Q

>  <PDBProtLig>
6O0O

>  <Ligand>
F3Q

>  <ChainId>
A

>  <ResidueNumber>
201

>  <Atoms>
95

>  <HeavyAtoms>
53

>  <MissingHeavyAtoms>
0

>  <MolecularWeight>
710.817

>  <ObservedFormula>
C43 N4 O6

>  <Formula>
C43 H42 N4 O6

>  <Type>
non-polymer

>  <Covalent>
na

>  <Deposition_Date>
2019-02-17

>  <Modified_Date>
2019-07-10

>  <2P2IDB_Date>
2022-05-01

>  <InChIKey>
VYXJULKGMXJVGI-XIFFEERXSA-N

>  <SMILES>
C1CCCn2c1c(cc2c1cc2c(OCO2)cc1C(=O)N1[C@@H](Cc2c(C1)cccc2)CN1CCOCC1)C(=O)N(c1ccc(cc1)O)c1ccccc1

>  <SDF>
6O0O_F3Q_A_201

$$$$
LBM
  CCTOOLS-0506221803

111118  0  0  0  0  0  0  0  0999 V2000
    7.3080   -1.9710   -3.2670 C   0  0  0  0  0
    7.9660   -1.5370   -2.1350 C   0  0  0  0  0
    7.3500    0.6050   -0.2170 C   0  0  0  0  0
    5.3000   -0.5930    0.2600 C   0  0  0  0  0
    3.9210   -0.4680    0.9110 C   0  0  0  0  0
    3.8400    1.8700    0.2940 C   0  0  0  0  0
    5.2190    1.7460   -0.3570 C   0  0  0  0  0
    0.9710    1.6000    0.2220 C   0  0  0  0  0
   -0.3090    1.6920    0.7390 C   0  0  0  0  0
    0.2120   -0.0850    2.3040 C   0  0  0  0  0
    1.4700   -0.1750    1.7800 C   0  0  0  0  0
   -2.0570    0.9340    2.3470 C   0  0  0  0  0
   -5.0750   -0.2610    2.7080 C   0  0  0  0  0
   -5.5830    0.6890    1.8410 C   0  0  0  0  0
   -6.8230   -1.0180    0.7010 C   0  0  0  0  0
   -6.3110   -1.9690    1.5730 C   0  0  0  0  0
   -8.0580   -2.8110   -0.4830 C   0  0  0  0  0
    5.9910    0.7020    0.3310 N   0  0  0  0  0
   11.1610   -1.1940    1.2470 C   0  0  0  0  0
   -2.8470    1.7430    1.8970 O   0  0  0  0  0
   10.0470   -1.8520    2.0630 C   0  0  0  0  0
    6.2710   -2.8820   -3.1620 C   0  0  0  0  0
    1.8620    0.6680    0.7420 C   0  0  0  0  0
    9.2750   -0.7800    2.8410 C   0  0  0  0  0
   -0.6970    0.8440    1.7890 C   0  0  0  0  0
   -6.4560    0.3150    0.8380 C   0  0  0  0  0
    8.8480    0.3170    1.8630 C   0  0  0  0  0
   -5.4380   -1.5880    2.5740 C   0  0  0  0  0
   -9.0310   -2.9560   -1.6540 C   0  0  0  0  0
   -9.3050   -4.4400   -1.9130 C   0  0  0  0  0
  -10.3390   -4.5730   -3.0330 C   0  0  0  0  0
  -11.3450   -2.4740   -2.4560 C   0  0  0  0  0
  -10.3510   -2.2570   -1.3130 C   0  0  0  0  0
   -0.8020    3.3160   -0.8550 C   0  0  0  0  0
   -0.7970    2.7320   -2.1180 C   0  0  0  0  0
   -0.0590    4.6790   -3.1150 C   0  0  0  0  0
    8.1830   -0.2910    0.6630 C   0  0  0  0  0
   -0.0400    5.3360   -1.8700 C   0  0  0  0  0
   -0.4180    4.6410   -0.7190 C   0  0  0  0  0
    0.4140    6.7020   -2.1350 C   0  0  0  0  0
    0.6320    6.7910   -3.4570 C   0  0  0  0  0
   10.6520   -2.8650    3.0370 C   0  0  0  0  0
    8.2860   -1.5560    0.3350 C   0  0  0  0  0
    9.0720   -2.5640    1.1220 C   0  0  0  0  0
    7.5850   -2.0180   -0.8820 C   0  0  0  0  0
    6.5390   -2.9360   -0.7820 C   0  0  0  0  0
    5.8920   -3.3680   -1.9210 C   0  0  0  0  0
    3.1490    0.5760    0.2230 N   0  0  0  0  0
   -2.4270    0.1190    3.3550 N   0  0  0  0  0
   -7.7050   -1.4000   -0.3130 N   0  0  0  0  0
   -6.9990    1.3330   -0.0890 N   0  3  0  0  0
   -0.4360    3.4090   -3.1870 N   0  0  0  0  0
    0.3550    5.5920   -4.0570 N   0  0  0  0  0
   -4.1990    1.5980    4.2290 O   0  0  0  0  0
   -4.0430   -0.7780    4.9900 O   0  0  0  0  0
  -11.5310   -3.8750   -2.6650 O   0  0  0  0  0
   -7.1400    1.0680   -1.2690 O   0  5  0  0  0
   -7.3060    2.4350    0.3290 O   0  0  0  0  0
   -1.1850    2.5960    0.2330 O   0  0  0  0  0
   -3.9570    0.2200    3.9820 S   0  0  0  0  0
    5.4420   -3.4180   -4.5900 CL  0  0  0  0  0
    7.5990   -1.5960   -4.2370 H   0  0  0  0  0
    8.7750   -0.8260   -2.2190 H   0  0  0  0  0
    7.3070    0.1880   -1.2230 H   0  0  0  0  0
    7.7990    1.5970   -0.2530 H   0  0  0  0  0
    5.8850   -1.3460    0.7880 H   0  0  0  0  0
    5.1840   -0.8870   -0.7830 H   0  0  0  0  0
    3.3950   -1.4200    0.8340 H   0  0  0  0  0
    4.0370   -0.2020    1.9620 H   0  0  0  0  0
    3.9550    2.1640    1.3380 H   0  0  0  0  0
    3.2550    2.6240   -0.2330 H   0  0  0  0  0
    5.1030    1.4790   -1.4070 H   0  0  0  0  0
    5.7450    2.6980   -0.2800 H   0  0  0  0  0
    1.2770    2.2480   -0.5860 H   0  0  0  0  0
   -0.0830   -0.7380    3.1120 H   0  0  0  0  0
    2.1690   -0.8930    2.1810 H   0  0  0  0  0
   -5.2980    1.7250    1.9490 H   0  0  0  0  0
   -6.5940   -3.0060    1.4690 H   0  0  0  0  0
   -8.5280   -3.1800    0.4280 H   0  0  0  0  0
   -7.1560   -3.3890   -0.6860 H   0  0  0  0  0
   10.7280   -0.4680    0.5590 H   0  0  0  0  0
   11.8530   -0.6880    1.9210 H   0  0  0  0  0
   11.6960   -1.9560    0.6820 H   0  0  0  0  0
    8.3920   -1.2240    3.3010 H   0  0  0  0  0
    9.9170   -0.3530    3.6120 H   0  0  0  0  0
    8.1500    0.9920    2.3590 H   0  0  0  0  0
    9.7260    0.8790    1.5450 H   0  0  0  0  0
   -5.0400   -2.3280    3.2530 H   0  0  0  0  0
   -8.5980   -2.5040   -2.5460 H   0  0  0  0  0
   -8.3800   -4.9350   -2.2110 H   0  0  0  0  0
   -9.6900   -4.9040   -1.0050 H   0  0  0  0  0
   -9.9370   -4.1460   -3.9520 H   0  0  0  0  0
  -10.5700   -5.6270   -3.1930 H   0  0  0  0  0
  -12.3000   -2.0150   -2.2000 H   0  0  0  0  0
  -10.9560   -2.0190   -3.3680 H   0  0  0  0  0
  -10.7580   -2.6760   -0.3920 H   0  0  0  0  0
  -10.1750   -1.1890   -1.1810 H   0  0  0  0  0
   -1.0950    1.7000   -2.2230 H   0  0  0  0  0
   -0.4130    5.1220    0.2490 H   0  0  0  0  0
    0.5470    7.4890   -1.4070 H   0  0  0  0  0
    0.9760    7.6770   -3.9710 H   0  0  0  0  0
   11.3400   -2.3540    3.7110 H   0  0  0  0  0
    9.8560   -3.3320    3.6170 H   0  0  0  0  0
   11.1910   -3.6290    2.4780 H   0  0  0  0  0
    9.6320   -3.2000    0.4360 H   0  0  0  0  0
    8.3890   -3.1790    1.7070 H   0  0  0  0  0
    6.2400   -3.3120    0.1850 H   0  0  0  0  0
    5.0820   -4.0780   -1.8450 H   0  0  0  0  0
   -1.7980   -0.5260    3.7130 H   0  0  0  0  0
   -8.0830   -0.7300   -0.9040 H   0  0  0  0  0
    0.4380    5.4130   -5.0060 H   0  0  0  0  0
  1 22  1  0  0  0
  1 62  1  0  0  0
  2  1  2  0  0  0
  2 45  1  0  0  0
  2 63  1  0  0  0
  3 18  1  0  0  0
  3 64  1  0  0  0
  3 65  1  0  0  0
  4  5  1  0  0  0
  4 66  1  0  0  0
  4 67  1  0  0  0
  5 48  1  0  0  0
  5 68  1  0  0  0
  5 69  1  0  0  0
  6 48  1  0  0  0
  6 70  1  0  0  0
  6 71  1  0  0  0
  7  6  1  0  0  0
  7 72  1  0  0  0
  7 73  1  0  0  0
  8  9  2  0  0  0
  8 74  1  0  0  0
  9 59  1  0  0  0
  9 25  1  0  0  0
 10 25  2  0  0  0
 10 75  1  0  0  0
 11 10  1  0  0  0
 11 76  1  0  0  0
 12 20  2  0  0  0
 12 49  1  0  0  0
 13 28  2  0  0  0
 13 14  1  0  0  0
 14 26  2  0  0  0
 14 77  1  0  0  0
 15 50  1  0  0  0
 16 15  2  0  0  0
 16 78  1  0  0  0
 17 29  1  0  0  0
 17 79  1  0  0  0
 17 80  1  0  0  0
 18  7  1  0  0  0
 18  4  1  0  0  0
 19 21  1  0  0  0
 19 81  1  0  0  0
 19 82  1  0  0  0
 19 83  1  0  0  0
 21 44  1  0  0  0
 21 42  1  0  0  0
 22 61  1  0  0  0
 22 47  2  0  0  0
 23 11  2  0  0  0
 23  8  1  0  0  0
 24 21  1  0  0  0
 24 27  1  0  0  0
 24 84  1  0  0  0
 24 85  1  0  0  0
 25 12  1  0  0  0
 26 15  1  0  0  0
 26 51  1  0  0  0
 27 37  1  0  0  0
 27 86  1  0  0  0
 27 87  1  0  0  0
 28 16  1  0  0  0
 28 88  1  0  0  0
 29 30  1  0  0  0
 29 89  1  0  0  0
 30 31  1  0  0  0
 30 90  1  0  0  0
 30 91  1  0  0  0
 31 92  1  0  0  0
 31 93  1  0  0  0
 32 56  1  0  0  0
 32 94  1  0  0  0
 32 95  1  0  0  0
 33 29  1  0  0  0
 33 32  1  0  0  0
 33 96  1  0  0  0
 33 97  1  0  0  0
 34 39  2  0  0  0
 34 35  1  0  0  0
 35 52  2  0  0  0
 35 98  1  0  0  0
 36 53  1  0  0  0
 37  3  1  0  0  0
 38 36  2  0  0  0
 38 40  1  0  0  0
 39 38  1  0  0  0
 39 99  1  0  0  0
 40 41  2  0  0  0
 40100  1  0  0  0
 41101  1  0  0  0
 42102  1  0  0  0
 42103  1  0  0  0
 42104  1  0  0  0
 43 37  2  0  0  0
 43 45  1  0  0  0
 44 43  1  0  0  0
 44105  1  0  0  0
 44106  1  0  0  0
 45 46  2  0  0  0
 46 47  1  0  0  0
 46107  1  0  0  0
 47108  1  0  0  0
 48 23  1  0  0  0
 49 60  1  0  0  0
 49109  1  0  0  0
 50 17  1  0  0  0
 50110  1  0  0  0
 51 57  1  0  0  0
 52 36  1  0  0  0
 53 41  1  0  0  0
 53111  1  0  0  0
 56 31  1  0  0  0
 58 51  2  0  0  0
 59 34  1  0  0  0
 60 54  2  0  0  0
 60 55  2  0  0  0
 60 13  1  0  0  0
M  CHG  1  51   1
M  CHG  1  57  -1
M  END
>  <2P2IDB_ID>
10101-0016

>  <Family>
BCL2

>  <UniProt>
P10415

>  <Class>
1

>  <Target>
BCL2

>  <SuperFamily>
BCL

>  <SuperFamily_ID>
101

>  <Target_ID>
10101

>  <Source>
Homo sapiens

>  <ExpData>
X-RAY DIFFRACTION

>  <PDBProtProt>
2XA0

>  <InstanceId>
6O0P_LBM

>  <PDBProtLig>
6O0P

>  <Ligand>
LBM

>  <ChainId>
A

>  <ResidueNumber>
301

>  <Atoms>
109

>  <HeavyAtoms>
59

>  <MissingHeavyAtoms>
0

>  <MolecularWeight>
868.439

>  <ObservedFormula>
C45 Cl N7 O7 S

>  <Formula>
C45 H50 Cl N7 O7 S

>  <Type>
non-polymer

>  <Covalent>
na

>  <Deposition_Date>
2019-02-17

>  <Modified_Date>
2019-12-11

>  <2P2IDB_Date>
2022-05-01

>  <InChIKey>
LQBVNQSMGBZMKD-UHFFFAOYSA-N

>  <SMILES>
c1cc(C2=C(CN3CCN(CC3)c3cc(c(cc3)C(=O)NS(=O)(=O)c3cc(c(cc3)NCC3CCOCC3)[N+](=O)[O-])Oc3cnc4c(c3)cc[nH]4)CCC(C)(C)C2)ccc1Cl

>  <SDF>
6O0P_LBM_A_301

$$$$
XZD
  CCTOOLS-0506221806

120127  0  0  0  0  0  0  0  0999 V2000
   -2.5500   -0.8320   -2.4740 N   0  0  0  0  0
    5.7660    0.5600    0.5190 N   0  0  0  0  0
    1.2910    0.3410   -1.2010 C   0  0  0  0  0
    0.0500   -0.0350   -1.6270 C   0  0  0  0  0
   -0.8710   -0.5690   -0.7190 C   0  0  0  0  0
   -2.2100   -0.9750   -1.1780 C   0  0  0  0  0
    3.6580    1.2380   -0.5260 C   0  0  0  0  0
    5.0270   -0.1000    1.6040 C   0  0  0  0  0
    7.9620    1.2760   -0.2360 C   0  0  0  0  0
    7.4720    3.5630    0.2710 C   0  0  0  0  0
    7.2990    4.7540    2.3490 C   0  0  0  0  0
    6.4170    4.3160   -0.2450 C   0  0  0  0  0
   -1.4480   -2.5850    1.6610 C   0  0  0  0  0
   -2.2690   -3.1530    2.6330 C   0  0  0  0  0
   -1.4940   -5.3390    1.8990 C   0  0  0  0  0
   -5.7550   -0.5720   -0.9740 C   0  0  0  0  0
   -5.5910    0.9680   -2.8040 C   0  0  0  0  0
   -0.5150   -0.7160    0.6310 C   0  0  0  0  0
    0.7470   -0.3310    1.0510 C   0  0  0  0  0
    1.6500    0.1970    0.1380 C   0  0  0  0  0
   -3.0090   -1.4390   -0.3870 O   0  0  0  0  0
    2.9190    0.5780    0.5590 N   0  0  0  0  0
    5.0160    1.7120   -0.0000 C   0  0  0  0  0
    3.6700   -0.5740    1.0790 C   0  0  0  0  0
    7.1070    0.9630    0.9650 C   0  0  0  0  0
    8.1270    2.5340   -0.5640 C   0  0  0  0  0
    7.9110    3.7890    1.5760 C   0  0  0  0  0
    6.2530    5.4990    1.8310 C   0  0  0  0  0
    5.8130    5.2790    0.5370 C   0  0  0  0  0
    5.4880    6.7120    2.8090 CL  0  0  0  0  0
   -1.4010   -1.2320    1.5180 O   0  0  0  0  0
   -2.2970   -4.5410    2.7590 C   0  0  0  0  0
   -0.6960   -4.7260    0.9670 N   0  0  0  0  0
   -0.6790   -3.3880    0.8500 C   0  0  0  0  0
   -5.2190   -0.2190   -2.1980 C   0  0  0  0  0
   -6.5000    1.8040   -2.1870 C   0  0  0  0  0
   -7.0460    1.4490   -0.9590 C   0  0  0  0  0
   -7.9660    2.2930   -0.3320 N   0  0  0  0  0
   -4.0580   -1.2830   -2.9890 S   0  0  0  0  0
   -4.1160   -0.9800   -4.3760 O   0  0  0  0  0
   -4.2880   -2.5850   -2.4680 O   0  0  0  0  0
    8.9440    2.9920   -1.7380 C   0  0  0  0  0
    9.8660    1.8650   -2.2100 C   0  0  0  0  0
    9.0310    0.5890   -2.3720 C   0  0  0  0  0
    8.5790    0.1290   -0.9820 C   0  0  0  0  0
   10.4970    2.2450   -3.5500 C   0  0  0  0  0
   10.9650    1.6320   -1.1710 C   0  0  0  0  0
   -8.4550    3.4870   -1.0260 C   0  0  0  0  0
   -9.4450    4.2300   -0.1250 C   0  0  0  0  0
  -10.0480    5.4110   -0.8920 C   0  0  0  0  0
  -10.9760    6.1930    0.0410 C   0  0  0  0  0
  -10.2410    6.6300    1.1850 O   0  0  0  0  0
   -9.6930    5.5670    1.9670 C   0  0  0  0  0
   -8.7140    4.7570    1.1130 C   0  0  0  0  0
   -6.6690    0.2570   -0.3540 C   0  0  0  0  0
   -7.2480   -0.1240    0.9540 N   0  3  0  0  0
   -8.4180    0.1140    1.1950 O   0  5  0  0  0
   -6.5550   -0.6770    1.7890 O   0  0  0  0  0
   -2.9830   -5.4470    3.5990 C   0  0  0  0  0
   -2.5820   -6.6920    3.2260 C   0  0  0  0  0
   -1.7060   -6.6040    2.2250 N   0  0  0  0  0
    0.1400   -5.5410    0.0820 C   0  0  0  0  0
    1.4950   -5.4970    0.5320 O   0  0  0  0  0
    2.7090   -6.1850   -0.2710 P   0  0  0  0  0
    2.7320   -5.6750   -1.6610 O   0  0  0  0  0
    4.1020   -5.8300    0.4540 O   0  0  0  0  0
    2.5040   -7.7820   -0.2890 O   0  0  0  0  0
   -1.9130   -0.4620   -3.1050 H   0  0  0  0  0
    2.0000    0.7480   -1.9070 H   0  0  0  0  0
   -0.2220    0.0800   -2.6660 H   0  0  0  0  0
    3.8110    0.5340   -1.3430 H   0  0  0  0  0
    3.0890    2.0950   -0.8850 H   0  0  0  0  0
    5.5970   -0.9570    1.9630 H   0  0  0  0  0
    4.8750    0.6040    2.4220 H   0  0  0  0  0
    7.6380    4.9300    3.3590 H   0  0  0  0  0
    6.0740    4.1460   -1.2550 H   0  0  0  0  0
   -2.8720   -2.5300    3.2770 H   0  0  0  0  0
   -5.4620   -1.4990   -0.5030 H   0  0  0  0  0
   -5.1660    1.2430   -3.7580 H   0  0  0  0  0
    1.0280   -0.4420    2.0880 H   0  0  0  0  0
    4.8630    2.4370    0.7990 H   0  0  0  0  0
    5.5770    2.1770   -0.8110 H   0  0  0  0  0
    3.8220   -1.2990    0.2790 H   0  0  0  0  0
    3.1080   -1.0380    1.8890 H   0  0  0  0  0
    7.0290    1.8480    1.5960 H   0  0  0  0  0
    7.5600    0.1500    1.5320 H   0  0  0  0  0
    8.7270    3.2090    1.9810 H   0  0  0  0  0
    4.9960    5.8620    0.1380 H   0  0  0  0  0
   -0.0410   -2.9320    0.1070 H   0  0  0  0  0
   -6.7900    2.7300   -2.6600 H   0  0  0  0  0
   -8.2800    2.0880    0.5620 H   0  0  0  0  0
    8.2770    3.2780   -2.5520 H   0  0  0  0  0
    9.5470    3.8510   -1.4460 H   0  0  0  0  0
    8.1600    0.7970   -2.9940 H   0  0  0  0  0
    9.6370   -0.1880   -2.8380 H   0  0  0  0  0
    9.4350   -0.2480   -0.4220 H   0  0  0  0  0
    7.8430   -0.6670   -1.0930 H   0  0  0  0  0
   11.0760    3.1610   -3.4330 H   0  0  0  0  0
   11.1530    1.4410   -3.8840 H   0  0  0  0  0
    9.7120    2.4040   -4.2900 H   0  0  0  0  0
   10.5120    1.3550   -0.2190 H   0  0  0  0  0
   11.6200    0.8290   -1.5100 H   0  0  0  0  0
   11.5450    2.5460   -1.0450 H   0  0  0  0  0
   -7.6150    4.1410   -1.2600 H   0  0  0  0  0
   -8.9550    3.1920   -1.9490 H   0  0  0  0  0
  -10.2390    3.5500    0.1820 H   0  0  0  0  0
   -9.2490    6.0630   -1.2430 H   0  0  0  0  0
  -10.6170    5.0390   -1.7440 H   0  0  0  0  0
  -11.3750    7.0600   -0.4870 H   0  0  0  0  0
  -11.7970    5.5510    0.3590 H   0  0  0  0  0
   -9.1680    5.9820    2.8280 H   0  0  0  0  0
  -10.4970    4.9170    2.3120 H   0  0  0  0  0
   -8.3290    3.9190    1.6940 H   0  0  0  0  0
   -7.8870    5.3970    0.8040 H   0  0  0  0  0
   -3.6860   -5.2010    4.3810 H   0  0  0  0  0
   -2.9220   -7.6140    3.6740 H   0  0  0  0  0
   -0.2140   -6.5720    0.0960 H   0  0  0  0  0
    0.0810   -5.1510   -0.9340 H   0  0  0  0  0
    4.8700   -6.2740    0.0680 H   0  0  0  0  0
    2.4790   -8.1850    0.5900 H   0  0  0  0  0
  1  6  1  0  0  0
  1 68  1  0  0  0
  2 25  1  0  0  0
  3 20  1  0  0  0
  3 69  1  0  0  0
  4  3  2  0  0  0
  4 70  1  0  0  0
  5 18  2  0  0  0
  5  4  1  0  0  0
  6  5  1  0  0  0
  7 23  1  0  0  0
  7 71  1  0  0  0
  7 72  1  0  0  0
  8  2  1  0  0  0
  8 73  1  0  0  0
  8 74  1  0  0  0
  9 26  2  0  0  0
 10 27  2  0  0  0
 11 75  1  0  0  0
 12 29  2  0  0  0
 12 10  1  0  0  0
 12 76  1  0  0  0
 13 14  1  0  0  0
 14 77  1  0  0  0
 15 61  2  0  0  0
 15 32  1  0  0  0
 16 78  1  0  0  0
 17 36  2  0  0  0
 17 35  1  0  0  0
 17 79  1  0  0  0
 18 19  1  0  0  0
 19 20  2  0  0  0
 19 80  1  0  0  0
 20 22  1  0  0  0
 21  6  2  0  0  0
 22 24  1  0  0  0
 22  7  1  0  0  0
 23  2  1  0  0  0
 23 81  1  0  0  0
 23 82  1  0  0  0
 24  8  1  0  0  0
 24 83  1  0  0  0
 24 84  1  0  0  0
 25  9  1  0  0  0
 25 85  1  0  0  0
 25 86  1  0  0  0
 26 10  1  0  0  0
 26 42  1  0  0  0
 27 11  1  0  0  0
 27 87  1  0  0  0
 28 30  1  0  0  0
 28 11  2  0  0  0
 29 28  1  0  0  0
 29 88  1  0  0  0
 31 13  1  0  0  0
 31 18  1  0  0  0
 32 14  2  0  0  0
 32 59  1  0  0  0
 33 34  1  0  0  0
 33 15  1  0  0  0
 34 13  2  0  0  0
 34 89  1  0  0  0
 35 39  1  0  0  0
 35 16  2  0  0  0
 36 37  1  0  0  0
 36 90  1  0  0  0
 37 55  2  0  0  0
 38 37  1  0  0  0
 38 91  1  0  0  0
 39 40  2  0  0  0
 39  1  1  0  0  0
 41 39  2  0  0  0
 42 92  1  0  0  0
 42 93  1  0  0  0
 43 42  1  0  0  0
 43 47  1  0  0  0
 44 43  1  0  0  0
 44 94  1  0  0  0
 44 95  1  0  0  0
 45  9  1  0  0  0
 45 44  1  0  0  0
 45 96  1  0  0  0
 45 97  1  0  0  0
 46 43  1  0  0  0
 46 98  1  0  0  0
 46 99  1  0  0  0
 46100  1  0  0  0
 47101  1  0  0  0
 47102  1  0  0  0
 47103  1  0  0  0
 48 49  1  0  0  0
 48 38  1  0  0  0
 48104  1  0  0  0
 48105  1  0  0  0
 49106  1  0  0  0
 50 51  1  0  0  0
 50 49  1  0  0  0
 50107  1  0  0  0
 50108  1  0  0  0
 51109  1  0  0  0
 51110  1  0  0  0
 52 51  1  0  0  0
 52 53  1  0  0  0
 53111  1  0  0  0
 53112  1  0  0  0
 54 49  1  0  0  0
 54 53  1  0  0  0
 54113  1  0  0  0
 54114  1  0  0  0
 55 16  1  0  0  0
 55 56  1  0  0  0
 56 58  2  0  0  0
 57 56  1  0  0  0
 59115  1  0  0  0
 60 59  2  0  0  0
 60116  1  0  0  0
 61 60  1  0  0  0
 62 33  1  0  0  0
 62117  1  0  0  0
 62118  1  0  0  0
 63 62  1  0  0  0
 64 63  1  0  0  0
 64 66  1  0  0  0
 65 64  2  0  0  0
 66119  1  0  0  0
 67 64  1  0  0  0
 67120  1  0  0  0
M  CHG  1  56   1
M  CHG  1  57  -1
M  END
>  <2P2IDB_ID>
10101-0017

>  <Family>
BCL2

>  <UniProt>
P10415

>  <Class>
1

>  <Target>
BCL2

>  <SuperFamily>
BCL

>  <SuperFamily_ID>
101

>  <Target_ID>
10101

>  <Source>
Homo sapiens

>  <ExpData>
X-RAY DIFFRACTION

>  <PDBProtProt>
2XA0

>  <InstanceId>
7LHB_XZD

>  <PDBProtLig>
7LHB

>  <Ligand>
XZD

>  <ChainId>
A

>  <ResidueNumber>
4000

>  <Atoms>
117

>  <HeavyAtoms>
64

>  <MissingHeavyAtoms>
0

>  <MolecularWeight>
978.445

>  <ObservedFormula>
C46 Cl N7 O11 P S

>  <Formula>
C46 H53 Cl N7 O11 P S

>  <Type>
non-polymer

>  <Covalent>
na

>  <Deposition_Date>
2021-01-21

>  <Modified_Date>
2022-04-13

>  <2P2IDB_Date>
2022-05-01

>  <InChIKey>
CLQLTQZFOGFNCT-UHFFFAOYSA-N

>  <SMILES>
N(C(=O)c1ccc(cc1Oc1cc2c(n(c1)COP(=O)(O)O)ncc2)N1CCN(CC1)CC1=C(c2ccc(cc2)Cl)CC(CC1)(C)C)S(=O)(=O)c1cc(c(cc1)NCC1CCOCC1)[N+](=O)[O-]

>  <SDF>
7LHB_XZD_A_4000

$$$$
ULL
  CCTOOLS-1229231540

 57 60  0  0  1  0  0  0  0  0999 V2000
    0.0340   -1.9680    0.5100 C   0  0  0  0  0
    3.0330   -3.6760    0.1380 C   0  0  0  0  0
    3.7230   -4.7860    0.5880 C   0  0  0  0  0
    4.5000   -5.5200   -0.2890 C   0  0  0  0  0
    4.5860   -5.1440   -1.6160 C   0  0  0  0  0
    3.8950   -4.0350   -2.0670 C   0  0  0  0  0
    3.1200   -3.3000   -1.1900 C   0  0  0  0  0
   -1.4040   -1.8010    0.2300 C   0  0  0  0  0
   -3.6140   -2.7320    0.0830 C   0  0  0  0  0
   -4.1070   -1.4880   -0.2950 C   0  0  0  0  0
   -3.2470   -0.4020   -0.4150 C   0  0  0  0  0
   -9.2430    1.4740   -0.9240 C   0  0  0  0  0
   -8.0220    1.2110   -0.0410 C   0  0  0  0  0
   -8.4540    1.1620    1.4260 C   0  0  0  0  0
   -7.4210   -0.0580   -0.4110 O   0  0  0  0  0
   -6.0910   -0.1780   -0.2360 C   0  0  0  0  0
   -5.4510    0.7510    0.2140 O   0  0  0  0  0
   -5.4710   -1.3300   -0.5600 N   0  0  0  0  0
   -1.9030   -0.5540   -0.1550 C   0  0  0  0  0
   -2.2710   -2.8920    0.3450 C   0  0  0  0  0
    0.9190   -1.0350    0.4320 N   0  0  0  0  0
    0.6950   -3.2580    0.9390 C   0  0  0  0  0
    2.1820   -2.8790    1.0920 C   0  0  0  0  0
    2.2110   -1.4490    0.7480 N   0  0  0  0  0
    3.3090   -0.6670    0.7410 C   0  0  0  0  0
    4.4040   -1.1540    0.9450 O   0  0  0  0  0
    3.1810    0.7830    0.4870 C   0  0  0  0  0
    4.2960    1.6160    0.6010 C   0  0  0  0  0
    4.1710    2.9680    0.3630 C   0  0  0  0  0
    2.9420    3.5010    0.0090 C   0  0  0  0  0
    2.7790    5.3560   -0.3160 BR  0  0  0  0  0
    1.8330    2.6800   -0.1070 C   0  0  0  0  0
    1.9470    1.3250    0.1240 C   0  0  0  0  0
    3.6560   -5.0790    1.6250 H   0  0  0  0  0
    5.0390   -6.3860    0.0630 H   0  0  0  0  0
    5.1930   -5.7170   -2.3010 H   0  0  0  0  0
    3.9630   -3.7410   -3.1040 H   0  0  0  0  0
    2.5810   -2.4330   -1.5420 H   0  0  0  0  0
   -4.2850   -3.5730    0.1750 H   0  0  0  0  0
   -3.6340    0.5620   -0.7090 H   0  0  0  0  0
   -9.6940    2.4260   -0.6460 H   0  0  0  0  0
   -8.9350    1.5090   -1.9690 H   0  0  0  0  0
   -9.9700    0.6730   -0.7860 H   0  0  0  0  0
   -7.2950    2.0120   -0.1790 H   0  0  0  0  0
   -9.1810    0.3610    1.5640 H   0  0  0  0  0
   -7.5840    0.9750    2.0550 H   0  0  0  0  0
   -8.9050    2.1140    1.7040 H   0  0  0  0  0
   -5.9700   -2.0500   -0.9770 H   0  0  0  0  0
   -1.2360    0.2900   -0.2480 H   0  0  0  0  0
   -1.8880   -3.8580    0.6370 H   0  0  0  0  0
    0.2870   -3.5990    1.8900 H   0  0  0  0  0
    0.5730   -4.0230    0.1730 H   0  0  0  0  0
    2.5130   -3.0330    2.1200 H   0  0  0  0  0
    5.2550    1.2020    0.8770 H   0  0  0  0  0
    5.0320    3.6130    0.4520 H   0  0  0  0  0
    0.8780    3.1010   -0.3830 H   0  0  0  0  0
    1.0820    0.6860    0.0290 H   0  0  0  0  0
  1  8  1  0  0  0
  1 21  2  0  0  0
  1 22  1  0  0  0
  2  3  2  0  0  0
  2  7  1  0  0  0
  2 23  1  0  0  0
  3  4  1  0  0  0
  3 34  1  0  0  0
  4  5  2  0  0  0
  4 35  1  0  0  0
  5  6  1  0  0  0
  5 36  1  0  0  0
  6  7  2  0  0  0
  6 37  1  0  0  0
  7 38  1  0  0  0
  8 19  2  0  0  0
  8 20  1  0  0  0
  9 10  1  0  0  0
  9 20  2  0  0  0
  9 39  1  0  0  0
 10 11  2  0  0  0
 10 18  1  0  0  0
 11 19  1  0  0  0
 11 40  1  0  0  0
 12 13  1  0  0  0
 12 41  1  0  0  0
 12 42  1  0  0  0
 12 43  1  0  0  0
 13 14  1  0  0  0
 13 15  1  0  0  0
 13 44  1  0  0  0
 14 45  1  0  0  0
 14 46  1  0  0  0
 14 47  1  0  0  0
 15 16  1  0  0  0
 16 17  2  0  0  0
 16 18  1  0  0  0
 18 48  1  0  0  0
 19 49  1  0  0  0
 20 50  1  0  0  0
 21 24  1  0  0  0
 22 23  1  0  0  0
 22 51  1  0  0  0
 22 52  1  0  0  0
 23 24  1  0  0  0
 23 53  1  0  0  0
 24 25  1  0  0  0
 25 26  2  0  0  0
 25 27  1  0  0  0
 27 28  2  0  0  0
 27 33  1  0  0  0
 28 29  1  0  0  0
 28 54  1  0  0  0
 29 30  2  0  0  0
 29 55  1  0  0  0
 30 32  1  0  0  0
 30 31  1  0  0  0
 32 33  2  0  0  0
 32 56  1  0  0  0
 33 57  1  0  0  0
M  END
>  <2P2IDB_ID>
10101-0018

>  <Family>
BCL2

>  <UniProt>
P10415

>  <Class>
1

>  <Target>
BCL2

>  <SuperFamily>
BCL

>  <SuperFamily_ID>
101

>  <Target_ID>
10101

>  <Source>
Homo sapiens

>  <ExpData>
SOLUTION NMR

>  <PDBProtProt>
2XA0

>  <InstanceId>
8U27_ULL

>  <PDBProtLig>
8U27

>  <Ligand>
ULL

>  <ChainId>
A

>  <ResidueNumber>
201

>  <Atoms>
56

>  <HeavyAtoms>
32

>  <MissingHeavyAtoms>
0

>  <MolecularWeight>
506.391

>  <ObservedFormula>
C26 Br N3 O3

>  <Formula>
C26 H24 Br N3 O3

>  <Type>
non-polymer

>  <Covalent>
na

>  <Deposition_Date>
2023-09-05

>  <Modified_Date>
2023-11-08

>  <2P2IDB_Date>
2024-01-25

>  <InChIKey>
RWCWONWFSWXBCW-DEOSSOPVSA-N

>  <SMILES>
C1(=NN([C@H](c2ccccc2)C1)C(=O)c1ccc(Br)cc1)c1ccc(cc1)NC(=O)OC(C)C

>  <SDF>
8U27_ULL_A_201

$$$$
